37
Coordinates from ORCA-job TEPABF4
  C   -0.28100276943125      1.01078933068810      1.38001218149554
  H   -0.72586696410387      1.62304362824405      2.18932925479916
  H   -0.85206207613288      1.22954605017319      0.45588774722668
  C   -0.39524574988008     -0.48106574017574      1.72861107096390
  H   0.09491416309741     -1.10953435791748      0.95302022959192
  H   0.09486542889589     -0.72174315932120      2.70008488465801
  C   -1.88917448997991     -0.86552371692888      1.79880884003699
  H   -2.41620531181893     -0.30617268300253      2.60391034151852
  H   -2.39916451037766     -0.63577127183324      0.83805724871655
  H   -2.00054240235421     -1.95146452050662      2.01022999596041
  N   1.13525695411368      1.59011036817753      1.16496458539668
  C   1.91423241692748      0.78715389635529      0.10438544435884
  H   2.15443976211268     -0.18613348488452      0.58136874792971
  C   3.29215347315632      2.15803601394701      2.53792242488794
  C   1.89800539050762      1.52457761124064      2.49396677505575
  C   1.23203305043929      0.57993801194694     -1.24890995466831
  H   2.87017019040096      1.33293547309623     -0.03146886735300
  H   3.27789176716653      3.25129705836648      2.34696772453434
  H   3.69034878351349      2.01025704820285      3.56674864128748
  H   1.23723902733411      2.00370781422208      3.24367587168083
  H   1.96242689220890      0.44954146490315      2.75437942164963
  H   0.40217131713828      3.00649331456534     -0.26963965972991
  C   1.00266839722359      3.05061895443083      0.66275183599252
  C   0.34859144109256      4.04618461860734      1.62076530167157
  H   2.03523456575495      3.36297706442024      0.40337962802115
  B   -2.05411673411462      2.56211124359515     -1.42043641695072
  F   -2.19597474918317      3.10935619034155     -0.10675883300655
  F   -1.96759679069262      1.12717572272012     -1.28735391698274
  F   -3.10982052554122      2.92412486851381     -2.24183623659020
  F   -0.79599233448224      3.02883836161059     -1.95279923356006
  H   4.01303315405814      1.68185233322746      1.84049304739097
  H   1.95314805539271      0.02298459210764     -1.88877761348318
  H   0.96738384275959      1.52745114310348     -1.75792897812422
  H   0.29653660236205     -0.00877087185911     -1.18394703022425
  H   0.36464913503662      5.03116188778890      1.10395918935003
  H   0.88054488481747      4.17112836539318      2.58892415182083
  H   -0.72162328741767      3.81330737644016      1.78907215467719
