34
  
  H   -5.16448444657027      0.80904784137995     -0.99471688502876
  C   -4.10685105414937      1.15162124062529     -0.95045981298323
  C   -3.25582706672339      0.18167350654379     -0.11135882165722
  H   -3.72270290086521      1.21502725568652     -1.99256856849820
  H   -4.10239852839527      2.17790808953715     -0.51635333654814
  C   -1.77683904765047      0.61480160218571     -0.02059000543686
  H   -3.30491048481661     -0.83577744341901     -0.56374691385464
  H   -3.68131036783014      0.08915533791315      0.91681795526021
  C   -0.92849889293384     -0.38436946657592      0.78854256733710
  H   -1.71140401665250      1.62662811389639      0.44508883618856
  H   -1.35506985319527      0.70258722093729     -1.04676454293843
  N   0.50923508122987     -0.00861485686798      0.82964565035223
  H   -0.97199765995608     -1.39565836039896      0.33567515396525
  H   -1.27553995538776     -0.45770963194361      1.84242855015688
  C   1.49781505697990     -0.64308763225567      0.16399595633180
  C   1.05456653618470      1.08306039425451      1.49336241847284
  N   2.66135777859366      0.00713657879602      0.38696994087208
  H   1.35149934579077     -1.53721907999854     -0.46106666341743
  C   2.40539679595759      1.09285863906025      1.21466429970989
  H   0.44487628117976      1.75774427543338      2.10461283154766
  C   3.95334774767324     -0.33038559392115     -0.23866112505879
  H   3.19829174312301      1.77776415529074      1.53503445061712
  H   4.74928315422828      0.24710448574231      0.26997142194760
  H   4.14878500855685     -1.41537884420720     -0.11562897038529
  H   3.90330382768623     -0.07429718647577     -1.32131980771407
  B   0.30056834526955     -1.27993506016898     -3.96455188238111
  C   0.03395943382413     -2.23789778758291     -2.68960745085422
  C   1.66695496572022     -0.50137411318188     -3.59677265420200
  N   2.64277140297789      0.03652954299701     -3.22105675476775
  N   -0.10239766686046     -2.82363091880699     -1.67729697059049
  C   0.45224426136313     -2.12274975365522     -5.31209756378785
  C   -0.90626300349295     -0.22202785186473     -4.03242681871137
  N   0.57101519661084     -2.74746589664588     -6.30022913061912
  N   -1.78956701746998      0.55344119769094     -4.00639535332426
