34
Coordinates from ORCA-job EMImTFSI
  C   -0.93543561757445     -0.64827708772044      0.44315519442943
  C   -0.37533408219558     -0.02777912860473     -0.82366609921174
  N   1.06844556907468     -0.27870091179096     -0.94939283323447
  H   -0.49419863880454      1.04994151184649     -0.80014746179499
  H   -0.85623637692817     -0.42006712997375     -1.71723135817438
  C   2.01222775935604      0.66175051243488     -0.95150173943254
  C   1.68170215003587     -1.51259132251314     -0.97499347321620
  N   3.20578708639228      0.07166853807105     -0.98223484795852
  H   1.83738265151398      1.71766905351055     -0.89177365651026
  C   3.02168928451529     -1.29074118106658     -0.99383085513573
  H   1.12413619827197     -2.42728407129505     -0.95351019224363
  C   4.48936688405514      0.76019915305360     -0.87882256508593
  H   3.84716558704467     -1.97344366234742     -0.96929414195996
  H   5.02631746306417      0.67858363859222     -1.81876701539373
  H   4.29938879584958      1.79746201108768     -0.63010464151280
  H   5.04636973737754      0.30725557730904     -0.06686952549324
  S   3.00518593372455     -0.02999157467304      2.86136072894545
  O   3.77133076096937     -0.61932798959094      1.78597007943735
  O   3.71073369532759      0.62619758089025      3.92431273876548
  N   1.69543900129974      0.71532059340561      2.34246918910075
  S   1.66554873880311      2.20221020110969      1.84104389956109
  O   2.91123918113015      2.67916134821659      1.28154612967970
  O   0.46351761890258      2.39054156704801      1.06038024134405
  C   2.12697408035737     -1.46608347815265      3.63153811327940
  F   1.42448677318159     -2.14685037430257      2.71597021954447
  F   3.03401595230913     -2.28938567573462      4.15763491943031
  F   1.29877050917832     -1.07156607889859      4.59211293469102
  C   1.37771719237802      3.24944175594368      3.34506185617150
  F   1.13511759841597      4.50294757178254      2.95558755356365
  F   2.43536663460524      3.24603797154546      4.14418837928190
  F   0.32019921396949      2.80102141995080      4.02073063595110
  H   -0.84240734190797     -1.73211344433423      0.43363923033040
  H   -1.99159715184859     -0.40090114405789      0.51913018173272
  H   -0.41727284184414     -0.25599575074155      1.31251818111834
