33
Coordinates from ORCA-job BPyBCN4
  C   -1.55843479913458     -0.86611593654779     -0.11946831283748
  C   -2.83409834454111     -0.48068079574430     -0.53684547451756
  C   -3.19117032964834      0.87974895128226     -0.49894142685582
  C   -2.24302070357740      1.82268626960537     -0.06135206794760
  C   -0.98042598419075      1.38693410613950      0.34649867064665
  H   -4.20573969563920      1.19913983353937     -0.78313133936943
  H   -1.23613612733155     -1.91573922702961     -0.07442599022470
  H   -3.55105390700706     -1.25480265643928     -0.84873386497225
  H   -2.48724480614241      2.89356600290397      0.00909383210137
  H   -0.21667271438605      2.06507755121565      0.75256403389046
  N   -0.65476055876105      0.06193296030665      0.31052357291459
  C   0.70312211169859     -0.37871361016875      0.76006076675511
  C   1.73197499813423     -0.37658472639415     -0.38547292158209
  H   0.57185947735896     -1.38766192847766      1.20175765344399
  H   0.99625135159904      0.30486940048963      1.58332413774387
  C   3.12232044966195     -0.84705287329669      0.09381852398221
  H   1.80895888063422      0.65097406017009     -0.81195131542866
  H   1.37347111224396     -1.03771524651088     -1.20920900215561
  C   4.18190751645007     -0.83560522546518     -1.02133175491986
  H   3.03472521620471     -1.87513680264163      0.51586528707229
  H   3.45831221648150     -0.19778338425591      0.93557605370602
  H   5.16476323013025     -1.18559673981286     -0.63625648482327
  H   3.89494954818725     -1.50339482588675     -1.86507469004401
  H   4.32956965142409      0.18801719429734     -1.43420728369908
  B   -2.32117348446394     -0.21740917952572      3.99459761237037
  C   -1.79050922900034     -1.56699064212477      3.28290195386014
  C   -1.14997557235068      0.87198564567706      3.76801304090914
  N   -0.29007314555303      1.61955990837452      3.47320029891287
  N   -1.36423864363152     -2.47130438403296      2.66171901644285
  C   -2.64595060240975     -0.43951920059316      5.54095263586704
  C   -3.60595702862104      0.28580277371841      3.16319158409388
  N   -4.48427669529151      0.65467986014223      2.47284118517295
  N   -2.88462338852749     -0.60246713291402      6.67987206949164
