   35
jmolscript: load "" {1 1 1} spacegroup "x,y,z" unitcell [{     14.803568     0.000000     0.000000 }, {      0.000000    14.632386     0.000000 }, {      0.000000     0.000000    14.152994 }]
C      6.525615     7.991646     8.633123    -0.144045
H      6.206366     8.412002     9.599704     0.106862
H      5.849757     8.349533     7.847124     0.136616
C      6.524035     6.464829     8.672440    -0.202849
H      6.840358     6.066776     7.697853     0.116572
H      7.212272     6.071477     9.439947     0.082667
C      5.096188     5.958207     8.961786    -0.112196
H      4.751051     6.360318     9.929742     0.086949
H      4.421109     6.357247     8.188853     0.114898
C      5.022650     4.423357     8.978215    -0.401878
H      5.688868     4.000001     9.747071     0.120773
H      4.000001     4.079258     9.189384     0.133438
H      5.323993     4.008782     8.004212     0.133505
N      7.884689     8.653320     8.344352     0.210705
C      8.592785     8.045057     7.104806    -0.129726
C      9.716343     7.184862     7.678714    -0.192971
C     10.187152     8.016938     8.887832    -0.196513
C      8.862331     8.452836     9.519780    -0.130881
H      7.841956     7.549298     6.482821     0.145361
H      8.992162     8.888941     6.530901     0.131509
H     10.506738     7.016397     6.935776     0.134201
H      9.337715     6.206867     8.009229     0.110108
H     10.764492     8.890932     8.549709     0.111540
H     10.803520     7.452961     9.600779     0.130453
H      8.906388     9.382587    10.098514     0.122256
H      8.453831     7.657659    10.153064     0.119242
H      7.053854    10.230468     7.181255     0.186651
C      7.632910    10.127461     8.106137    -0.364212
H      7.074056    10.527164     8.960931     0.155073
H      8.603058    10.632392     8.016478     0.150961
B      5.624727     8.787225     5.177747     0.997491
F      4.928610     9.430357     6.262658    -0.468066
F      5.870523     7.418148     5.562243    -0.463209
F      4.884881     8.849502     4.000001    -0.454733
F      6.900898     9.438437     5.030629    -0.476552
 
 Chargemol version 3.5 September 26, 2017.
See ddec.sourceforge.net for latest version.
 
Computational parameters:
Number of radial integration shells =    100
Cutoff radius (pm) =    500
Error in the integrated total number of electrons before renormalization (e) =    2.5872E-04
Charge convergence tolerance =    1.0000E-05
Minimum radius for electron cloud penetration fitting (pm) =    200
Minimum decay exponent for electron density of buried atom tails =   1.7500
Maximum decay exponent for electron density of buried atom tails =  2.5000
Number of iterations to convergence =      7
 
The following XYZ coordinates are in angstroms. The atomic dipoles and quadrupoles are in atomic units.
atom number, atomic symbol, x, y, z, net_charge, dipole_x, dipole_y, dipole_z, dipole_mag, Qxy, Qxz, Qyz,Q(x^2-y^2), Q(3z^2 - R^2), three eigenvalues of traceless quadrupole moment tensor
    1 C      6.525615     7.991646     8.633123    -0.144045     0.051853    -0.055361    -0.012184     0.076825     0.049255    -0.042314    -0.006097     0.061946    -0.133342    -0.063765    -0.028493     0.092258
    2 H      6.206366     8.412002     9.599704     0.106862    -0.019156     0.009649     0.038037     0.043668    -0.000517    -0.008002     0.008453     0.002371     0.025787    -0.010997    -0.004595     0.015592
    3 H      5.849757     8.349533     7.847124     0.136616    -0.030009     0.007092    -0.032047     0.044473     0.000522    -0.000520    -0.003840     0.011045    -0.017857    -0.008451    -0.000109     0.008560
    4 C      6.524035     6.464829     8.672440    -0.202849    -0.079253     0.039061     0.011267     0.089071     0.030849     0.008485    -0.014435    -0.077020    -0.038335    -0.047781    -0.009654     0.057435
    5 H      6.840358     6.066776     7.697853     0.116572    -0.003227    -0.016158    -0.042384     0.045474     0.000380    -0.008871     0.012982    -0.004349     0.032096    -0.015029    -0.005468     0.020497
    6 H      7.212272     6.071477     9.439947     0.082667     0.010620    -0.018754     0.031835     0.038444    -0.002096     0.008646    -0.007877     0.002183     0.014955    -0.009747    -0.004601     0.014348
    7 C      5.096188     5.958207     8.961786    -0.112196     0.072764    -0.081192    -0.017202     0.110375     0.039668    -0.004511    -0.008919    -0.025078    -0.012448    -0.039605    -0.006026     0.045631
    8 H      4.751051     6.360318     9.929742     0.086949    -0.007466     0.004481     0.036826     0.037842     0.004412    -0.005887     0.003177    -0.003312     0.013355    -0.010005     0.002405     0.007600
    9 H      4.421109     6.357247     8.188853     0.114898    -0.020590     0.008747    -0.039067     0.045019     0.001315     0.010442    -0.004894     0.001536    -0.006737    -0.012504     0.001581     0.010923
   10 C      5.022650     4.423357     8.978215    -0.401878     0.007466     0.105623    -0.004327     0.105975     0.011598     0.004275    -0.006512    -0.032219    -0.015012    -0.019915    -0.003311     0.023226
   11 H      5.688868     4.000001     9.747071     0.120773     0.015782    -0.002945     0.020593     0.026112    -0.001288     0.009203    -0.001953    -0.010936     0.005104    -0.012348     0.003364     0.008984
   12 H      4.000001     4.079258     9.189384     0.133438    -0.029041    -0.000802     0.004684     0.029427     0.000986    -0.003177    -0.000527     0.008377    -0.030119    -0.010562     0.000719     0.009843
   13 H      5.323993     4.008782     8.004212     0.133505     0.006037    -0.000648    -0.028873     0.029504    -0.000331    -0.003694     0.000626    -0.013783     0.028849    -0.012325     0.002032     0.010293
   14 N      7.884689     8.653320     8.344352     0.210705     0.003175     0.014011    -0.014099     0.020129    -0.017793     0.010970    -0.006342    -0.003585    -0.069699    -0.026570    -0.005575     0.032145
   15 C      8.592785     8.045057     7.104806    -0.129726     0.024352    -0.015235     0.073225     0.078658    -0.050383    -0.049760     0.039339     0.021816     0.179601    -0.081488    -0.025505     0.106992
   16 C      9.716343     7.184862     7.678714    -0.192971    -0.032492     0.074613     0.029637     0.086610    -0.012563     0.025349     0.015382     0.028199     0.092811    -0.042605    -0.003032     0.045638
   17 C     10.187152     8.016938     8.887832    -0.196513    -0.081672    -0.021687    -0.031704     0.090254    -0.018032    -0.012352     0.022014     0.030569     0.049164    -0.036684    -0.001359     0.038042
   18 C      8.862331     8.452836     9.519780    -0.130881     0.029856    -0.018703    -0.081823     0.089085    -0.012408     0.057737     0.003465     0.031041     0.118909    -0.052713    -0.026886     0.079599
   19 H      7.841956     7.549298     6.482821     0.145361    -0.025646    -0.020998    -0.032474     0.046402    -0.002112    -0.004894     0.017918     0.002297     0.012185    -0.017970    -0.002013     0.019983
   20 H      8.992162     8.888941     6.530901     0.131509     0.015606     0.029552    -0.032821     0.046841     0.001981    -0.017087    -0.009647    -0.011622     0.014308    -0.020666    -0.000598     0.021264
   21 H     10.506738     7.016397     6.935776     0.134201     0.029128    -0.000932    -0.029144     0.041216    -0.001345    -0.005282     0.001468     0.015445     0.018623    -0.011009     0.000072     0.010937
   22 H      9.337715     6.206867     8.009229     0.110108    -0.014204    -0.033105     0.012664     0.038185     0.004926     0.006138    -0.002977    -0.025842    -0.005127    -0.016018     0.001116     0.014902
   23 H     10.764492     8.890932     8.549709     0.111540     0.019499     0.028411    -0.016696     0.038290     0.010086    -0.007836     0.000619    -0.002841    -0.005806    -0.013107     0.000269     0.012838
   24 H     10.803520     7.452961     9.600779     0.130453     0.019968    -0.026255     0.024816     0.041279    -0.009149     0.004006    -0.004306     0.000063     0.009510    -0.010738    -0.000904     0.011642
   25 H      8.906388     9.382587    10.098514     0.122256     0.010284     0.038600     0.026082     0.047708    -0.000399     0.009828     0.014147    -0.010949     0.006053    -0.016998    -0.002141     0.019139
   26 H      8.453831     7.657659    10.153064     0.119242    -0.009391    -0.034669     0.026687     0.044748     0.003179    -0.001917    -0.015694     0.004872     0.027959    -0.016808    -0.002518     0.019326
   27 H      7.053854    10.230468     7.181255     0.186651    -0.020700     0.010278    -0.030403     0.038190    -0.004720     0.006301    -0.005174    -0.029829    -0.016390    -0.016027    -0.003858     0.019885
   28 C      7.632910    10.127461     8.106137    -0.364212    -0.002883    -0.047944     0.001910     0.048069    -0.033082    -0.014189    -0.035433    -0.192283    -0.276416    -0.104418    -0.047712     0.152130
   29 H      7.074056    10.527164     8.960931     0.155073    -0.025091     0.018394     0.019090     0.036501    -0.009426    -0.011665     0.001642    -0.014562    -0.000320    -0.017737     0.002183     0.015554
   30 H      8.603058    10.632392     8.016478     0.150961     0.025872     0.022299    -0.008507     0.035199     0.004696    -0.000369    -0.008137    -0.005213    -0.054782    -0.020350     0.004285     0.016065
   31 B      5.624727     8.787225     5.177747     0.997491    -0.002616     0.000535    -0.003874     0.004705    -0.000789    -0.012017    -0.000776    -0.007719    -0.028847    -0.017505     0.008513     0.008992
   32 F      4.928610     9.430357     6.262658    -0.468066    -0.032964     0.020230     0.016834     0.042181    -0.009594    -0.014721     0.013819    -0.005642     0.089139    -0.025203    -0.013731     0.038934
   33 F      5.870523     7.418148     5.562243    -0.463209    -0.003545    -0.034209     0.000205     0.034393    -0.012226     0.007572    -0.025443    -0.032311    -0.019525    -0.022104    -0.016886     0.038990
   34 F      4.884881     8.849502     4.000001    -0.454733    -0.030112     0.003226    -0.044506     0.053832    -0.000996     0.028802    -0.001904     0.018286     0.070061    -0.021271    -0.020789     0.042060
   35 F      6.900898     9.438437     5.030629    -0.476552     0.024658     0.019769    -0.023651     0.039474     0.019300     0.001564     0.004135     0.035158    -0.055161    -0.020991    -0.014488     0.035478
 
The sperically averaged electron density of each atom fit to a function of the form exp(a - br) for r >=rmin_cloud_penetration
atom number,atomic symbol, x, y, z, a, b, Rsquared where a and b are in atomic units and Rsquared is the squared correlation coefficient
    1 C      6.525615     7.991646     8.633123    -0.163474     1.884169     0.999706
    2 H      6.206366     8.412002     9.599704    -1.698608     2.039177     0.999429
    3 H      5.849757     8.349533     7.847124    -1.551143     1.985014     0.999321
    4 C      6.524035     6.464829     8.672440    -0.341020     1.847363     0.999977
    5 H      6.840358     6.066776     7.697853    -1.727426     1.980279     0.999470
    6 H      7.212272     6.071477     9.439947    -1.763449     2.012742     0.999663
    7 C      5.096188     5.958207     8.961786    -0.524057     1.874716     0.999070
    8 H      4.751051     6.360318     9.929742    -2.175116     2.008970     0.999427
    9 H      4.421109     6.357247     8.188853    -2.164581     1.952435     0.999708
   10 C      5.022650     4.423357     8.978215    -0.383761     1.893037     0.999265
   11 H      5.688868     4.000001     9.747071    -1.642514     2.114668     0.999040
   12 H      4.000001     4.079258     9.189384    -1.866370     2.123992     0.997345
   13 H      5.323993     4.008782     8.004212    -2.342942     1.980553     0.998465
   14 N      7.884689     8.653320     8.344352     0.360238     2.190285     0.996466
   15 C      8.592785     8.045057     7.104806    -0.179645     1.900244     0.999589
   16 C      9.716343     7.184862     7.678714    -0.376338     1.920633     0.998845
   17 C     10.187152     8.016938     8.887832     0.340918     2.063243     0.999956
   18 C      8.862331     8.452836     9.519780     0.574876     2.089425     0.999553
   19 H      7.841956     7.549298     6.482821    -1.978903     1.942157     0.999856
   20 H      8.992162     8.888941     6.530901    -2.144313     1.960756     0.999849
   21 H     10.506738     7.016397     6.935776    -2.955215     1.964228     0.995277
   22 H      9.337715     6.206867     8.009229    -2.296248     1.976487     0.997739
   23 H     10.764492     8.890932     8.549709    -1.390939     2.187517     0.999138
   24 H     10.803520     7.452961     9.600779    -1.932456     2.136978     0.999639
   25 H      8.906388     9.382587    10.098514    -1.568421     2.154881     0.999374
   26 H      8.453831     7.657659    10.153064    -1.774944     2.071830     0.999690
   27 H      7.053854    10.230468     7.181255    -1.865738     2.017688     0.999045
   28 C      7.632910    10.127461     8.106137    -0.401307     1.878232     0.999926
   29 H      7.074056    10.527164     8.960931    -2.595106     1.993583     0.996905
   30 H      8.603058    10.632392     8.016478    -2.413259     2.015679     0.998430
   31 B      5.624727     8.787225     5.177747    -0.177688     1.990001     0.997431
   32 F      4.928610     9.430357     6.262658    -0.284773     2.118176     0.999969
   33 F      5.870523     7.418148     5.562243    -0.490805     2.077284     0.999806
   34 F      4.884881     8.849502     4.000001    -0.532658     2.030270     0.999893
   35 F      6.900898     9.438437     5.030629    -0.296059     2.119309     0.999706
 
 2018/11/18  03:00:32
