   45
jmolscript: load "" {1 1 1} spacegroup "x,y,z" unitcell [{     13.097975     0.000000     0.000000 }, {      0.000000    17.654835     0.000000 }, {      0.000000     0.000000    18.875490 }]
C      5.935172     7.953634    10.673139    -0.144856
H      6.094494     8.992430    10.362538     0.131154
H      4.893337     7.827458    11.002368     0.112481
C      6.903389     7.587473    11.798486    -0.196443
H      6.671823     6.591604    12.212632     0.089327
H      7.937638     7.552434    11.423868     0.104728
C      6.837859     8.642779    12.921491    -0.115265
H      7.124073     9.617628    12.498761     0.116052
H      5.798520     8.739143    13.278074     0.093191
C      7.762107     8.281651    14.095494    -0.402545
H      8.805912     8.187413    13.756721     0.129438
H      7.731789     9.055672    14.875598     0.138331
H      7.468932     7.324278    14.554943     0.122124
N      6.063762     7.129009     9.383323     0.206420
C      5.942832     5.621314     9.655440    -0.127147
C      7.371740     5.080316     9.615972    -0.198838
C      8.000477     5.913572     8.481176    -0.188150
C      7.452124     7.327797     8.711734    -0.119910
H      5.404699     5.477316    10.599601     0.123325
H      5.348516     5.195765     8.835905     0.120630
H      7.380585     4.000001     9.416938     0.132333
H      7.886766     5.261440    10.569257     0.111304
H      7.674128     5.527627     7.503013     0.114319
H      9.097912     5.905293     8.497457     0.135929
H      7.321037     7.914874     7.798140     0.133522
H      8.066122     7.918302     9.397537     0.131310
H      4.000001     7.292399     8.880831     0.154989
C      4.965088     7.581894     8.447096    -0.365379
H      5.028209     8.668217     8.326938     0.174880
H      5.109731     7.101848     7.472949     0.166673
S      6.516789    10.313499     6.458156     0.911722
O      7.831361     9.679278     6.387765    -0.510694
O      5.361482     9.591601     5.940526    -0.506305
N      6.110407    10.862311     7.914039    -0.648081
S      7.199867    11.470556     8.943867     0.926584
O      7.536589    10.519225    10.006860    -0.524418
O      8.272326    12.264505     8.373380    -0.482230
C      6.665003    11.823520     5.280629     0.514885
F      7.796385    12.527204     5.498227    -0.167094
F      6.684166    11.354737     4.000001    -0.187751
F      5.594793    12.647691     5.424218    -0.181040
C      6.039568    12.718421     9.799373     0.516194
F      6.731640    13.335513    10.796734    -0.184287
F      4.959810    12.093473    10.353252    -0.188744
F      5.601929    13.654919     8.926738    -0.172671
 
 Chargemol version 3.5 September 26, 2017.
See ddec.sourceforge.net for latest version.
 
Computational parameters:
Number of radial integration shells =    100
Cutoff radius (pm) =    500
Error in the integrated total number of electrons before renormalization (e) =    1.2442E-03
Charge convergence tolerance =    1.0000E-05
Minimum radius for electron cloud penetration fitting (pm) =    200
Minimum decay exponent for electron density of buried atom tails =   1.7500
Maximum decay exponent for electron density of buried atom tails =  2.5000
Number of iterations to convergence =      7
 
The following XYZ coordinates are in angstroms. The atomic dipoles and quadrupoles are in atomic units.
atom number, atomic symbol, x, y, z, net_charge, dipole_x, dipole_y, dipole_z, dipole_mag, Qxy, Qxz, Qyz,Q(x^2-y^2), Q(3z^2 - R^2), three eigenvalues of traceless quadrupole moment tensor
    1 C      5.935172     7.953634    10.673139    -0.144856     0.055994    -0.048944     0.010634     0.075126    -0.014151    -0.005459     0.062908     0.000109     0.160147    -0.063894    -0.025175     0.089069
    2 H      6.094494     8.992430    10.362538     0.131154     0.009473     0.041298    -0.006551     0.042874    -0.007471     0.001059    -0.000458    -0.010612     0.009717    -0.010821     0.003098     0.007723
    3 H      4.893337     7.827458    11.002368     0.112481    -0.039429    -0.000182     0.021595     0.044956     0.000576    -0.008593     0.000981     0.024865    -0.002205    -0.012240    -0.004730     0.016970
    4 C      6.903389     7.587473    11.798486    -0.196443    -0.043382     0.077762     0.011443     0.089777     0.018554     0.029044    -0.011041     0.030921     0.108901    -0.048806    -0.002992     0.051799
    5 H      6.671823     6.591604    12.212632     0.089327    -0.012991    -0.027629     0.026089     0.040159     0.006814    -0.002602    -0.007728    -0.015534    -0.005628    -0.009414    -0.005754     0.015168
    6 H      7.937638     7.552434    11.423868     0.104728     0.039434     0.013664    -0.006214     0.042195     0.003290    -0.005787     0.002281     0.024498    -0.020024    -0.011668    -0.005606     0.017274
    7 C      6.837859     8.642779    12.921491    -0.115265     0.068768    -0.080517     0.023228     0.108404     0.018137     0.013647     0.018261     0.014740     0.110277    -0.038842    -0.008594     0.047436
    8 H      7.124073     9.617628    12.498761     0.116052     0.023235     0.035484    -0.017332     0.045819     0.007921     0.001269    -0.000723    -0.013104    -0.005248    -0.009672    -0.001483     0.011155
    9 H      5.798520     8.739143    13.278074     0.093191    -0.032561    -0.002585     0.018492     0.037534    -0.000592    -0.001895     0.004006     0.014852     0.009105    -0.010160     0.002929     0.007231
   10 C      7.762107     8.281651    14.095494    -0.402545    -0.060539     0.025412    -0.080862     0.104160     0.005461     0.015789    -0.009322     0.011628     0.049571    -0.022524    -0.003708     0.026232
   11 H      8.805912     8.187413    13.756721     0.129438     0.023123     0.003336    -0.014804     0.027657     0.000031    -0.002525    -0.005660     0.018152     0.006682    -0.012421     0.003246     0.009176
   12 H      7.731789     9.055672    14.875598     0.138331    -0.005201     0.025025     0.015391     0.029836    -0.004876     0.003260     0.006248    -0.010744     0.004572    -0.010597     0.000847     0.009750
   13 H      7.468932     7.324278    14.554943     0.122124    -0.013338    -0.021401     0.008272     0.026540     0.006236     0.004208    -0.008916    -0.000790    -0.003595    -0.013116     0.003679     0.009437
   14 N      6.063762     7.129009     9.383323     0.206420    -0.001371     0.004079    -0.017290     0.017817    -0.025206     0.011390    -0.003086    -0.003284    -0.020145    -0.024347    -0.006971     0.031318
   15 C      5.942832     5.621314     9.655440    -0.127147     0.082648     0.033213    -0.013455     0.090083     0.016819    -0.015205    -0.023778    -0.110537    -0.104012    -0.051712    -0.029190     0.080902
   16 C      7.371740     5.080316     9.615972    -0.198838    -0.028830     0.065995    -0.051483     0.088527    -0.004382    -0.021587    -0.013749     0.031261    -0.093975    -0.042896     0.004882     0.038014
   17 C      8.000477     5.913572     8.481176    -0.188150    -0.055607     0.030925     0.062762     0.089373     0.003955    -0.021051    -0.031140    -0.046484    -0.055864    -0.043965    -0.005928     0.049894
   18 C      7.452124     7.327797     8.711734    -0.119910    -0.024175    -0.074829     0.017077     0.080470     0.015862    -0.071279    -0.009448     0.094189    -0.122902    -0.076326    -0.029134     0.105460
   19 H      5.404699     5.477316    10.599601     0.123325    -0.018595    -0.012383     0.042563     0.048070     0.001505    -0.017937    -0.007956    -0.010199     0.015794    -0.020820    -0.000030     0.020850
   20 H      5.348516     5.195765     8.835905     0.120630    -0.017676    -0.024296    -0.034426     0.045693     0.008431     0.011250     0.008252    -0.010972    -0.008177    -0.014712    -0.004437     0.019149
   21 H      7.380585     4.000001     9.416938     0.132333     0.000496    -0.039893    -0.012635     0.041849    -0.000275    -0.003337     0.004761    -0.013435    -0.025997    -0.010951    -0.001262     0.012212
   22 H      7.886766     5.261440    10.569257     0.111304     0.022743     0.008133     0.031156     0.039422     0.001577     0.010425    -0.005081     0.019728     0.022361    -0.015593    -0.001877     0.017471
   23 H      7.674128     5.527627     7.503013     0.114319    -0.013097    -0.011601    -0.034227     0.038440     0.003512     0.003085     0.001344    -0.013226     0.033765    -0.013407     0.001452     0.011955
   24 H      9.097912     5.905293     8.497457     0.135929     0.041357     0.002812     0.004808     0.041730     0.001666     0.001120    -0.004872     0.013390    -0.029675    -0.012294     0.000436     0.011858
   25 H      7.321037     7.914874     7.798140     0.133522     0.002510     0.019613    -0.038485     0.043267    -0.006086    -0.003960    -0.003471     0.018895     0.012565    -0.014415     0.003841     0.010575
   26 H      8.066122     7.918302     9.397537     0.131310     0.031947     0.028532     0.021610     0.047976     0.012503     0.001370     0.012351     0.024765    -0.015050    -0.022288     0.000638     0.021649
   27 H      4.000001     7.292399     8.880831     0.154989    -0.035639    -0.001839     0.007779     0.036524     0.000408     0.000843    -0.010938     0.027723    -0.009044    -0.019596     0.004189     0.015408
   28 C      4.965088     7.581894     8.447096    -0.365379     0.028924    -0.001700     0.029535     0.041374    -0.060770     0.095092    -0.032333     0.146914     0.046374    -0.103113    -0.055128     0.158242
   29 H      5.028209     8.668217     8.326938     0.174880    -0.008355     0.035009    -0.007682     0.036803    -0.010886     0.010359    -0.000400     0.008365    -0.027934    -0.015390    -0.003744     0.019134
   30 H      5.109731     7.101848     7.472949     0.166673     0.000997    -0.005632    -0.039284     0.039699    -0.011323     0.006833     0.011079     0.016599     0.040814    -0.025183     0.007142     0.018041
   31 S      6.516789    10.313499     6.458156     0.911722    -0.021371    -0.120660     0.104733     0.161197    -0.016860    -0.014057     0.086644     0.112642     0.046209    -0.119883     0.036276     0.083607
   32 O      7.831361     9.679278     6.387765    -0.510694     0.065361    -0.022078    -0.004199     0.069117    -0.041221    -0.003109     0.003173     0.087163    -0.129993    -0.044029    -0.037756     0.081785
   33 O      5.361482     9.591601     5.940526    -0.506305    -0.054030    -0.017638    -0.011789     0.058046     0.041801     0.030922     0.030060     0.063503    -0.063749    -0.052381    -0.027625     0.080006
   34 N      6.110407    10.862311     7.914039    -0.648081     0.020701    -0.000094    -0.017562     0.027147     0.022696     0.041954     0.049126     0.088442     0.132967    -0.085471    -0.008631     0.094102
   35 S      7.199867    11.470556     8.943867     0.926584     0.096174    -0.125278    -0.063267     0.170137     0.043342     0.050281     0.011193     0.043515     0.036017    -0.060282    -0.018726     0.079008
   36 O      7.536589    10.519225    10.006860    -0.524418     0.027676    -0.025461     0.021193     0.043166    -0.004233     0.011503    -0.056888    -0.021965     0.044905    -0.048663    -0.019247     0.067910
   37 O      8.272326    12.264505     8.373380    -0.482230     0.070060     0.030434    -0.030393     0.082209     0.049852    -0.035560    -0.024927     0.009580    -0.094032    -0.049441    -0.032704     0.082145
   38 C      6.665003    11.823520     5.280629     0.514885     0.010085     0.121776    -0.104598     0.160848    -0.008920     0.007694     0.064877     0.073041    -0.034893    -0.087809     0.043402     0.044406
   39 F      7.796385    12.527204     5.498227    -0.167094     0.009330     0.004230     0.006827     0.012311     0.064248     0.029851     0.022849     0.086679    -0.143699    -0.061268    -0.048894     0.110162
   40 F      6.684166    11.354737     4.000001    -0.187751    -0.001349     0.000911    -0.003950     0.004272    -0.003358    -0.000221     0.062744    -0.018754     0.242959    -0.060068    -0.049017     0.109085
   41 F      5.594793    12.647691     5.424218    -0.181040    -0.004052     0.003253    -0.000429     0.005214    -0.071464    -0.020405     0.019169     0.057081    -0.154566    -0.058820    -0.048701     0.107522
   42 C      6.039568    12.718421     9.799373     0.516194    -0.098158     0.110293     0.073812     0.165069     0.053866     0.034169    -0.035788     0.018916     0.032632    -0.085458     0.035616     0.049843
   43 F      6.731640    13.335513    10.796734    -0.184287     0.002729     0.006658     0.002142     0.007507     0.041350     0.065076     0.046422     0.026336     0.089280    -0.058336    -0.050739     0.109075
   44 F      4.959810    12.093473    10.353252    -0.188744    -0.004697     0.004569    -0.003691     0.007521     0.066703    -0.042927    -0.031223     0.051568    -0.085129    -0.057555    -0.049012     0.106567
   45 F      5.601929    13.654919     8.926738    -0.172671    -0.002626     0.004760    -0.003997     0.006747    -0.024631     0.035470    -0.076224    -0.050224     0.062859    -0.061685    -0.045190     0.106876
 
The sperically averaged electron density of each atom fit to a function of the form exp(a - br) for r >=rmin_cloud_penetration
atom number,atomic symbol, x, y, z, a, b, Rsquared where a and b are in atomic units and Rsquared is the squared correlation coefficient
    1 C      5.935172     7.953634    10.673139    -0.139698     1.894790     0.999658
    2 H      6.094494     8.992430    10.362538    -1.988919     1.888697     0.999524
    3 H      4.893337     7.827458    11.002368    -1.941347     2.004536     0.999558
    4 C      6.903389     7.587473    11.798486    -0.296960     1.864668     0.999979
    5 H      6.671823     6.591604    12.212632    -1.814963     2.010164     0.999597
    6 H      7.937638     7.552434    11.423868    -1.738896     1.998159     0.999218
    7 C      6.837859     8.642779    12.921491    -0.550128     1.869735     0.999298
    8 H      7.124073     9.617628    12.498761    -1.976964     1.981898     0.999161
    9 H      5.798520     8.739143    13.278074    -2.674833     1.909790     0.998318
   10 C      7.762107     8.281651    14.095494    -0.413139     1.893211     0.998776
   11 H      8.805912     8.187413    13.756721    -2.240817     2.010743     0.997573
   12 H      7.731789     9.055672    14.875598    -2.242077     2.057374     0.995834
   13 H      7.468932     7.324278    14.554943    -1.986924     2.050760     0.997588
   14 N      6.063762     7.129009     9.383323     0.193526     2.162235     0.996433
   15 C      5.942832     5.621314     9.655440     0.506329     2.079725     0.999425
   16 C      7.371740     5.080316     9.615972     0.154035     2.021322     0.999520
   17 C      8.000477     5.913572     8.481176    -0.299927     1.944204     0.999367
   18 C      7.452124     7.327797     8.711734    -0.371928     1.864442     0.999678
   19 H      5.404699     5.477316    10.599601    -1.993472     2.050903     0.999560
   20 H      5.348516     5.195765     8.835905    -1.539603     2.144322     0.999824
   21 H      7.380585     4.000001     9.416938    -2.169191     2.105181     0.998043
   22 H      7.886766     5.261440    10.569257    -1.891682     2.051211     0.998933
   23 H      7.674128     5.527627     7.503013    -2.220859     2.027760     0.999250
   24 H      9.097912     5.905293     8.497457    -2.711866     2.008077     0.997250
   25 H      7.321037     7.914874     7.798140    -1.425804     2.039997     0.999003
   26 H      8.066122     7.918302     9.397537    -1.971260     1.963841     0.998742
   27 H      4.000001     7.292399     8.880831    -2.650537     1.995609     0.997036
   28 C      4.965088     7.581894     8.447096    -0.342677     1.883359     0.999981
   29 H      5.028209     8.668217     8.326938    -1.609554     2.038685     0.999896
   30 H      5.109731     7.101848     7.472949    -1.986451     2.037793     0.999879
   31 S      6.516789    10.313499     6.458156     1.474591     2.149043     0.999795
   32 O      7.831361     9.679278     6.387765    -0.897815     1.875312     0.999809
   33 O      5.361482     9.591601     5.940526    -0.713849     1.927537     0.999298
   34 N      6.110407    10.862311     7.914039    -0.302517     1.821944     0.999868
   35 S      7.199867    11.470556     8.943867     1.355851     2.122450     0.999900
   36 O      7.536589    10.519225    10.006860    -0.786918     1.869083     0.999966
   37 O      8.272326    12.264505     8.373380    -0.655817     1.920867     0.999886
   38 C      6.665003    11.823520     5.280629    -0.005037     2.032861     0.998707
   39 F      7.796385    12.527204     5.498227    -0.220313     2.230222     0.998793
   40 F      6.684166    11.354737     4.000001    -0.012561     2.263636     0.998353
   41 F      5.594793    12.647691     5.424218    -0.391160     2.188686     0.999005
   42 C      6.039568    12.718421     9.799373    -0.048254     2.028237     0.997434
   43 F      6.731640    13.335513    10.796734     0.172213     2.309429     0.998959
   44 F      4.959810    12.093473    10.353252    -0.503842     2.176203     0.998604
   45 F      5.601929    13.654919     8.926738     0.140975     2.292705     0.999405
 
 2018/11/18  02:38:03
