34

  H   -3.80859807076778     -0.86707901567846      2.55215353414401
  C   -2.79032442348528     -1.20179889323708      2.25521585864716
  C   -2.30778693079389     -0.44816722307063      1.00280081003537
  H   -2.10733382339963     -1.02218218991012      3.11592886269609
  H   -2.83375875097505     -2.30147158235165      2.07994622620691
  C   -0.88308180223098     -0.85983804098574      0.57617250973764
  H   -2.31872159669067      0.64837528325141      1.20618191652088
  H   -3.02112667936803     -0.61952492232745      0.16065392385698
  C   -0.39723565943212     -0.07967227514777     -0.66018091066706
  H   -0.85948493830545     -1.95481425174955      0.36240584679658
  H   -0.17544183327597     -0.67352031505561      1.41246040284060
  N   1.03420162842443     -0.32786488583106     -0.95498127214265
  H   -0.48797781047556      1.01277216536230     -0.48910945238821
  H   -0.98309616055307     -0.33844198734239     -1.57025590805093
  C   2.00988411895962      0.58885668247520     -0.79174654089231
  C   1.62234596155247     -1.54609375776023     -1.27962946074412
  N   3.20346588566044     -0.00266398357407     -1.00269204754834
  H   1.84055908865112      1.64288368000803     -0.51592160823524
  C   2.98434264189038     -1.34092058764752     -1.30738828476342
  H   1.03257375883644     -2.45317176465693     -1.44923656898093
  C   4.51314659895704      0.64050228714916     -0.81293867095028
  H   3.81004093774405     -2.03478156361141     -1.49968682208558
  H   5.00734436579775      0.79856067208622     -1.79509229352653
  H   4.36351809832142      1.60535647295215     -0.28995427079799
  H   5.13228297890543     -0.00892427260175     -0.16203210303530
  S   2.60215557837202      0.35473625765067      3.01463025223776
  O   3.37745850961303     -0.53110598973221      2.11882120539736
  O   3.20830932240902      0.87794219687332      4.24392669913528
  N   1.65221742676865      1.40286135638862      2.16355012503408
  S   2.21208195679151      2.86869562076681      1.77773519294208
  O   3.68258615070260      3.01464548616682      1.70412332908426
  O   1.38802233918409      3.35238232030021      0.64176225773597
  F   1.33499723832887     -0.60872604294061      3.50959762283186
  F   1.76362389388312      3.82639306378131      3.04326963892802
