   34
jmolscript: load "" {1 1 1} spacegroup "x,y,z" unitcell [{     16.940920     0.000000     0.000000 }, {      0.000000    14.279488     0.000000 }, {      0.000000     0.000000    14.038954 }]
H      4.000001     5.586093     8.347247     0.128931
C      5.018274     5.251374     8.050309    -0.394731
C      5.500812     6.005005     6.797893    -0.110853
H      5.701265     5.430990     8.911022     0.136643
H      4.974840     4.151700     7.875039     0.121906
C      6.925517     5.593334     6.371266    -0.198662
H      5.489877     7.101548     7.001275     0.097447
H      4.787472     5.833647     5.955747     0.081935
C      7.411363     6.373500     5.134912    -0.106378
H      6.949114     4.498358     6.157499     0.093027
H      7.633157     5.779652     7.207553     0.117029
N      8.842801     6.125307     4.840111     0.093848
H      7.320621     7.465944     5.305983     0.130057
H      6.825502     6.114730     4.224837     0.110245
C      9.818483     7.042029     5.003346     0.029944
C      9.430945     4.907079     4.515463    -0.106629
N     11.012065     6.450508     4.792401     0.147540
H      9.649158     8.096056     5.279171     0.142024
C     10.792941     5.112252     4.487705    -0.110209
H      8.841172     4.000001     4.345856     0.159579
C     12.321746     7.093674     4.982154    -0.334706
H     11.618640     4.418390     4.295406     0.163941
H     12.815943     7.251733     4.000001     0.151803
H     12.172117     8.058529     5.505138     0.174095
H     12.940882     6.444248     5.633061     0.172296
S     10.410754     6.807909     8.809723     1.236753
O     11.186057     5.922066     7.913914    -0.551006
O     11.016908     7.331115    10.039019    -0.501311
N      9.460816     7.856034     7.958643    -0.709150
S     10.020681     9.321868     7.572828     1.212416
O     11.491185     9.467818     7.499216    -0.541906
O      9.196621     9.805555     6.436855    -0.541472
F      9.143596     5.844446     9.304691    -0.254954
F      9.572223    10.279565     8.838362    -0.239491
 
 Chargemol version 3.5 September 26, 2017.
See ddec.sourceforge.net for latest version.
 
Computational parameters:
Number of radial integration shells =    100
Cutoff radius (pm) =    500
Error in the integrated total number of electrons before renormalization (e) =    1.3190E-03
Charge convergence tolerance =    1.0000E-05
Minimum radius for electron cloud penetration fitting (pm) =    200
Minimum decay exponent for electron density of buried atom tails =   1.7500
Maximum decay exponent for electron density of buried atom tails =  2.5000
Number of iterations to convergence =      7
 
The following XYZ coordinates are in angstroms. The atomic dipoles and quadrupoles are in atomic units.
atom number, atomic symbol, x, y, z, net_charge, dipole_x, dipole_y, dipole_z, dipole_mag, Qxy, Qxz, Qyz,Q(x^2-y^2), Q(3z^2 - R^2), three eigenvalues of traceless quadrupole moment tensor
    1 H      4.000001     5.586093     8.347247     0.128931    -0.026916     0.014435     0.002666     0.030658    -0.007146    -0.005103    -0.004505     0.010385    -0.008824    -0.011954     0.001109     0.010844
    2 C      5.018274     5.251374     8.050309    -0.394731     0.039184     0.049049    -0.083106     0.104152     0.009407    -0.016618    -0.009870     0.004459     0.021696    -0.014780    -0.011115     0.025895
    3 C      5.500812     6.005005     6.797893    -0.110853     0.043543    -0.077940     0.072867     0.115240     0.018509    -0.027726     0.013480     0.042859     0.015310    -0.042885     0.001633     0.041252
    4 H      5.701265     5.430990     8.911022     0.136643     0.023668     0.010929     0.018505     0.031969     0.007698     0.007041    -0.001247     0.003065     0.017542    -0.012497     0.001639     0.010858
    5 H      4.974840     4.151700     7.875039     0.121906     0.000440    -0.025731    -0.009889     0.027569     0.003383    -0.002592     0.000348    -0.020812     0.006155    -0.012440     0.002523     0.009917
    6 C      6.925517     5.593334     6.371266    -0.198662    -0.056595     0.052969    -0.024509     0.081298     0.027359    -0.040181    -0.018649    -0.007929     0.072135    -0.047009    -0.015260     0.062269
    7 H      5.489877     7.101548     7.001275     0.097447     0.005789     0.037299     0.022206     0.043794     0.002326    -0.005555     0.006276    -0.011575    -0.015059    -0.011777     0.000987     0.010790
    8 H      4.787472     5.833647     5.955747     0.081935    -0.027443    -0.017635    -0.023536     0.040226     0.004362     0.002735     0.002826     0.017417     0.009732    -0.011675     0.001838     0.009837
    9 C      7.411363     6.373500     5.134912    -0.106378     0.038594    -0.053258     0.055109     0.085807    -0.010730    -0.024568     0.019194     0.080218    -0.086420    -0.047846    -0.016094     0.063939
   10 H      6.949114     4.498358     6.157499     0.093027    -0.009945    -0.037060    -0.003791     0.038558     0.002066    -0.002087     0.003448    -0.019568    -0.011769    -0.009260    -0.003338     0.012597
   11 H      7.633157     5.779652     7.207553     0.117029     0.019477     0.014629     0.034215     0.042000     0.001211     0.002745     0.001682     0.010870     0.010443    -0.007493     0.000856     0.006637
   12 N      8.842801     6.125307     4.840111     0.093848    -0.026071    -0.021423     0.029288     0.044681    -0.004715    -0.020457     0.020016     0.037748    -0.177005    -0.067348     0.013510     0.053839
   13 H      7.320621     7.465944     5.305983     0.130057    -0.005230     0.049662     0.017272     0.052839    -0.002389    -0.003278    -0.002049    -0.022156    -0.027314    -0.011677    -0.004324     0.016001
   14 H      6.825502     6.114730     4.224837     0.110245    -0.028935    -0.015803    -0.037062     0.049604     0.003504     0.005831     0.004143     0.008808     0.034628    -0.011607    -0.003236     0.014844
   15 C      9.818483     7.042029     5.003346     0.029944     0.003471    -0.042629     0.008216     0.043552     0.005344     0.000319    -0.017883     0.007691     0.048717    -0.022023    -0.003033     0.025056
   16 C      9.430945     4.907079     4.515463    -0.106629    -0.018489     0.028572     0.026416     0.043081    -0.023724    -0.004161     0.024925    -0.044678    -0.145570    -0.054710    -0.007593     0.062303
   17 N     11.012065     6.450508     4.792401     0.147540     0.055129     0.003038     0.023538     0.060021     0.026963     0.003093     0.023118     0.027892    -0.228697    -0.081359     0.011362     0.069998
   18 H      9.649158     8.096056     5.279171     0.142024    -0.010869     0.057205     0.010350     0.059141    -0.000453     0.000328    -0.007304     0.000104    -0.044491    -0.017020     0.007342     0.009678
   19 C     10.792941     5.112252     4.487705    -0.110209     0.008142     0.027044     0.029450     0.040804     0.007281     0.003868     0.018394    -0.056348    -0.148323    -0.052781    -0.004334     0.057115
   20 H      8.841172     4.000001     4.345856     0.159579    -0.030333    -0.056341    -0.010022     0.064767     0.007322     0.003153     0.013183    -0.015931    -0.094548    -0.034552     0.005015     0.029538
   21 C     12.321746     7.093674     4.982154    -0.334706    -0.062678    -0.026228    -0.003226     0.068021     0.074430     0.031045     0.006443     0.085869    -0.136855    -0.068641    -0.045777     0.114418
   22 H     11.618640     4.418390     4.295406     0.163941     0.044689    -0.043655    -0.007809     0.062959    -0.010595    -0.004466     0.010938    -0.002500    -0.087094    -0.031650     0.004241     0.027410
   23 H     12.815943     7.251733     4.000001     0.151803     0.016492     0.009182    -0.032361     0.037463     0.010247    -0.002650    -0.000401     0.015779     0.035496    -0.018870     0.005918     0.012952
   24 H     12.172117     8.058529     5.505138     0.174095     0.002402     0.033852     0.020615     0.039707     0.007616     0.005547     0.006097     0.003925    -0.042011    -0.016253    -0.000747     0.017000
   25 H     12.940882     6.444248     5.633061     0.172296     0.020276    -0.018565     0.031616     0.041896     0.002698     0.013951    -0.012778     0.002189    -0.019982    -0.022263     0.005847     0.016416
   26 S     10.410754     6.807909     8.809723     1.236753    -0.055647    -0.033153    -0.001337     0.064788     0.027905    -0.002237    -0.042936     0.056990    -0.157003    -0.078149     0.008862     0.069287
   27 O     11.186057     5.922066     7.913914    -0.551006     0.060189    -0.067407    -0.049382     0.102981    -0.027174    -0.039373     0.032830     0.000891    -0.014005    -0.042129    -0.024233     0.066362
   28 O     11.016908     7.331115    10.039019    -0.501311     0.057426     0.050634     0.110101     0.134103     0.035693     0.033165     0.034361     0.005963     0.108382    -0.054019    -0.021507     0.075526
   29 N      9.460816     7.856034     7.958643    -0.709150    -0.035105    -0.003345     0.026580     0.044159    -0.019096     0.030636    -0.043670    -0.053230    -0.121748    -0.066828    -0.009064     0.075892
   30 S     10.020681     9.321868     7.572828     1.212416    -0.042710     0.041325     0.045433     0.074806     0.022142    -0.007514     0.019544    -0.002222    -0.014915    -0.033077     0.005231     0.027846
   31 O     11.491185     9.467818     7.499216    -0.541906     0.125984     0.028739     0.017685     0.130425     0.003784    -0.005431     0.004337     0.137800    -0.121890    -0.050722    -0.038814     0.089536
   32 O      9.196621     9.805555     6.436855    -0.541472    -0.065996     0.040255    -0.063590     0.100098    -0.023855     0.047923    -0.022702     0.004331     0.149566    -0.053351    -0.029139     0.082489
   33 F      9.143596     5.844446     9.304691    -0.254954    -0.018108    -0.003503     0.007127     0.019773     0.058968    -0.029035    -0.029690     0.029444    -0.107185    -0.052039    -0.039896     0.091935
   34 F      9.572223    10.279565     8.838362    -0.239491    -0.006134     0.013808     0.024690     0.028946    -0.020153    -0.028943     0.061994    -0.030246     0.121707    -0.048372    -0.045062     0.093434
 
The sperically averaged electron density of each atom fit to a function of the form exp(a - br) for r >=rmin_cloud_penetration
atom number,atomic symbol, x, y, z, a, b, Rsquared where a and b are in atomic units and Rsquared is the squared correlation coefficient
    1 H      4.000001     5.586093     8.347247    -2.150654     2.061962     0.995171
    2 C      5.018274     5.251374     8.050309    -0.507475     1.865282     0.999153
    3 C      5.500812     6.005005     6.797893    -0.430274     1.893812     0.999018
    4 H      5.701265     5.430990     8.911022    -2.451030     1.937359     0.998241
    5 H      4.974840     4.151700     7.875039    -2.032404     2.043720     0.997537
    6 C      6.925517     5.593334     6.371266    -0.375134     1.846221     0.999860
    7 H      5.489877     7.101548     7.001275    -2.450992     1.922972     0.999057
    8 H      4.787472     5.833647     5.955747    -2.061096     2.012754     0.998628
    9 C      7.411363     6.373500     5.134912    -0.485667     1.882707     0.999758
   10 H      6.949114     4.498358     6.157499    -1.923798     1.988396     0.999272
   11 H      7.633157     5.779652     7.207553    -1.789761     1.927419     0.998933
   12 N      8.842801     6.125307     4.840111     0.151795     2.124215     0.999249
   13 H      7.320621     7.465944     5.305983    -1.873627     1.999135     0.999342
   14 H      6.825502     6.114730     4.224837    -2.347536     1.968852     0.999355
   15 C      9.818483     7.042029     5.003346     0.194769     2.034015     0.997762
   16 C      9.430945     4.907079     4.515463     0.373194     2.070610     0.999978
   17 N     11.012065     6.450508     4.792401     0.730462     2.257335     0.999904
   18 H      9.649158     8.096056     5.279171    -1.555067     2.035479     0.999924
   19 C     10.792941     5.112252     4.487705     0.519601     2.107764     0.999719
   20 H      8.841172     4.000001     4.345856    -1.721870     2.107757     0.999537
   21 C     12.321746     7.093674     4.982154    -0.385783     1.919498     0.999805
   22 H     11.618640     4.418390     4.295406    -1.672599     2.129525     0.999661
   23 H     12.815943     7.251733     4.000001    -2.429784     2.081389     0.997315
   24 H     12.172117     8.058529     5.505138    -1.632223     2.099008     0.999499
   25 H     12.940882     6.444248     5.633061    -1.976237     2.092096     0.999284
   26 S     10.410754     6.807909     8.809723     1.088992     2.099448     0.999311
   27 O     11.186057     5.922066     7.913914    -0.756073     1.874745     0.999927
   28 O     11.016908     7.331115    10.039019    -0.469776     1.982075     0.999750
   29 N      9.460816     7.856034     7.958643    -0.275037     1.835929     0.999476
   30 S     10.020681     9.321868     7.572828     1.358530     2.152192     0.999740
   31 O     11.491185     9.467818     7.499216    -0.482747     1.962784     0.999969
   32 O      9.196621     9.805555     6.436855    -0.714378     1.922135     0.999773
   33 F      9.143596     5.844446     9.304691    -0.131813     2.231820     0.999795
   34 F      9.572223    10.279565     8.838362     0.277206     2.324539     0.999055
 
 2018/11/17  19:31:33
