   31
jmolscript: load "" {1 1 1} spacegroup "x,y,z" unitcell [{     13.247635     0.000000     0.000000 }, {      0.000000    13.451779     0.000000 }, {      0.000000     0.000000    16.690538 }]
C      6.047288     7.805575     8.509882    -0.140621
H      6.136298     8.868315     8.239152     0.107374
H      5.037738     7.646186     8.916177     0.108486
C      7.096653     7.443573     9.562651    -0.198427
H      6.913329     6.427937     9.943684     0.103310
H      8.105297     7.451118     9.120763     0.108276
C      7.042758     8.439952    10.738506    -0.117928
H      7.278819     9.451850    10.368237     0.093954
H      6.013537     8.484190    11.133777     0.094225
C      8.013704     8.061766    11.869017    -0.402800
H      9.050921     8.025214    11.501050     0.130467
H      7.971297     8.791593    12.690456     0.138267
H      7.769840     7.071040    12.282900     0.128475
N      6.093153     7.046943     7.186732     0.212321
C      6.004174     5.523127     7.364560    -0.120265
C      7.444315     5.021440     7.489531    -0.182496
C      8.284702     6.007028     6.632707    -0.183955
C      7.425745     7.273085     6.437823    -0.116371
H      5.350865     5.316764     8.223666     0.106703
H      5.575902     5.150907     6.419989     0.137419
H      7.504126     4.000001     7.090961     0.132733
H      7.788742     5.002622     8.531599     0.084254
H      8.454256     5.573792     5.638438     0.130642
H      9.247622     6.234396     7.111744     0.098136
H      7.158919     7.368367     5.376905     0.134355
H      7.870666     8.198340     6.826857     0.102104
H      4.000001     7.292684     6.874879     0.147921
C      4.929779     7.526441     6.341371    -0.364823
H      5.025112     8.610911     6.206759     0.149366
H      4.988942     6.990404     5.374967     0.172906
Cl     6.118434     5.420536     4.000001    -0.794009
 
 Chargemol version 3.5 September 26, 2017.
See ddec.sourceforge.net for latest version.
 
Computational parameters:
Number of radial integration shells =    100
Cutoff radius (pm) =    500
Error in the integrated total number of electrons before renormalization (e) =    5.9364E-05
Charge convergence tolerance =    1.0000E-05
Minimum radius for electron cloud penetration fitting (pm) =    200
Minimum decay exponent for electron density of buried atom tails =   1.7500
Maximum decay exponent for electron density of buried atom tails =  2.5000
Number of iterations to convergence =      7
 
The following XYZ coordinates are in angstroms. The atomic dipoles and quadrupoles are in atomic units.
atom number, atomic symbol, x, y, z, net_charge, dipole_x, dipole_y, dipole_z, dipole_mag, Qxy, Qxz, Qyz,Q(x^2-y^2), Q(3z^2 - R^2), three eigenvalues of traceless quadrupole moment tensor
    1 C      6.047288     7.805575     8.509882    -0.140621     0.061399    -0.053316     0.004125     0.081422    -0.007036    -0.002118     0.046442    -0.024600     0.129035    -0.040357    -0.030103     0.070459
    2 H      6.136298     8.868315     8.239152     0.107374     0.008531     0.043510    -0.005030     0.044623     0.000127    -0.000608    -0.004117    -0.028874    -0.011240    -0.012606    -0.004519     0.017125
    3 H      5.037738     7.646186     8.916177     0.108486    -0.037657    -0.008126     0.025107     0.045983     0.003356    -0.010928    -0.000306     0.022670     0.001581    -0.012288    -0.005948     0.018236
    4 C      7.096653     7.443573     9.562651    -0.198427    -0.046490     0.060517     0.011269     0.077140     0.011971     0.029662     0.003208     0.032674     0.119868    -0.040866    -0.014854     0.055720
    5 H      6.913329     6.427937     9.943684     0.103310    -0.012029    -0.030589     0.021402     0.039223     0.005960    -0.002339    -0.007641    -0.015265    -0.005250    -0.008829    -0.005658     0.014487
    6 H      8.105297     7.451118     9.120763     0.108276     0.034860     0.006524    -0.011966     0.037429     0.003704    -0.003895     0.003763     0.017551    -0.009757    -0.010725    -0.001097     0.011822
    7 C      7.042758     8.439952    10.738506    -0.117928     0.072297    -0.079824     0.021660     0.109854     0.024806     0.014170     0.016389     0.009132     0.096409    -0.041484    -0.003537     0.045021
    8 H      7.278819     9.451850    10.368237     0.093954     0.021156     0.033066    -0.010037     0.040518     0.007404     0.001050    -0.001724    -0.013673     0.005462    -0.011199     0.001850     0.009349
    9 H      6.013537     8.484190    11.133777     0.094225    -0.032407    -0.007574     0.021251     0.039486     0.002122    -0.003081     0.003569     0.014466     0.011167    -0.010537     0.002783     0.007754
   10 C      8.013704     8.061766    11.869017    -0.402800    -0.063237     0.023525    -0.077121     0.102469    -0.000119     0.019690    -0.007205     0.016662     0.046108    -0.019310    -0.010507     0.029817
   11 H      9.050921     8.025214    11.501050     0.130467     0.022972     0.002442    -0.014598     0.027327    -0.000651    -0.001751    -0.005174     0.018779     0.004430    -0.012173     0.003100     0.009074
   12 H      7.971297     8.791593    12.690456     0.138267    -0.005864     0.022839     0.018047     0.029693    -0.005596     0.003483     0.007119    -0.007250     0.009231    -0.011374     0.001522     0.009851
   13 H      7.769840     7.071040    12.282900     0.128475    -0.011919    -0.023339     0.007249     0.027190     0.005198     0.004755    -0.008419    -0.002883    -0.008505    -0.012665     0.003447     0.009218
   14 N      6.093153     7.046943     7.186732     0.212321    -0.004091    -0.008297    -0.023286     0.025056    -0.025215     0.017557     0.008273     0.015589     0.020440    -0.036725     0.008539     0.028186
   15 C      6.004174     5.523127     7.364560    -0.120265     0.084657     0.033635    -0.004796     0.091220     0.013304    -0.029163    -0.036581    -0.123554    -0.155045    -0.076990    -0.022658     0.099649
   16 C      7.444315     5.021440     7.489531    -0.182496    -0.021927     0.072503    -0.062702     0.098331    -0.002045    -0.004961    -0.023175     0.060749    -0.089610    -0.047220     0.001580     0.045640
   17 C      8.284702     6.007028     6.632707    -0.183955    -0.090346     0.006408     0.024842     0.093918    -0.008594    -0.004605    -0.057591    -0.016660    -0.137866    -0.077387     0.014746     0.062641
   18 C      7.425745     7.273085     6.437823    -0.116371    -0.006563    -0.088167     0.034903     0.095051     0.035815    -0.075052    -0.008664     0.082493    -0.118854    -0.081257    -0.029494     0.110751
   19 H      5.350865     5.316764     8.223666     0.106703    -0.022741    -0.017328     0.034342     0.044686     0.003330    -0.016398    -0.007490    -0.010225     0.000285    -0.019379     0.000713     0.018666
   20 H      5.575902     5.150907     6.419989     0.137419    -0.008484    -0.018495    -0.040690     0.045494     0.006574     0.007004    -0.002833    -0.010194    -0.037648    -0.016490     0.001885     0.014605
   21 H      7.504126     4.000001     7.090961     0.132733     0.000933    -0.035411    -0.025831     0.043842    -0.000275    -0.004324     0.007258    -0.005498    -0.033816    -0.014592     0.003474     0.011118
   22 H      7.788742     5.002622     8.531599     0.084254     0.018209    -0.001205     0.035222     0.039669    -0.000039     0.008922    -0.008896     0.019070     0.034201    -0.018262    -0.000719     0.018981
   23 H      8.454256     5.573792     5.638438     0.130642    -0.001502    -0.017658    -0.040944     0.044615    -0.006295    -0.011205    -0.000070    -0.013477     0.002857    -0.016282     0.004616     0.011666
   24 H      9.247622     6.234396     7.111744     0.098136     0.035699     0.003841     0.016936     0.039699     0.003911     0.010778    -0.006839     0.009753    -0.027814    -0.017703     0.003245     0.014459
   25 H      7.158919     7.368367     5.376905     0.134355    -0.005172    -0.005632    -0.047500     0.048111    -0.000443    -0.006787    -0.015003     0.019654     0.004143    -0.021299     0.005253     0.016046
   26 H      7.870666     8.198340     6.826857     0.102104     0.026580     0.035479     0.011820     0.045880     0.014300    -0.007313     0.010515    -0.004876    -0.031340    -0.022387     0.002223     0.020163
   27 H      4.000001     7.292684     6.874879     0.147921    -0.033331    -0.012428     0.005036     0.035928     0.001713    -0.000036    -0.010079     0.026382    -0.011265    -0.018356     0.003146     0.015210
   28 C      4.929779     7.526441     6.341371    -0.364823     0.037906    -0.020648     0.018477     0.046954    -0.036689     0.093012    -0.067027     0.112061    -0.101858    -0.114814    -0.035368     0.150182
   29 H      5.025112     8.610911     6.206759     0.149366     0.001209     0.031753    -0.016305     0.035715     0.000809     0.009947    -0.009141    -0.010300    -0.030959    -0.018750     0.004286     0.014463
   30 H      4.988942     6.990404     5.374967     0.172906    -0.003500    -0.013780    -0.031240     0.034323    -0.007995     0.010844    -0.004962     0.013849    -0.008821    -0.009531    -0.009106     0.018638
   31 Cl     6.118434     5.420536     4.000001    -0.794009     0.011954    -0.044031    -0.057248     0.073205    -0.010270     0.025140     0.080682     0.010147     0.330741    -0.099715    -0.044649     0.144364
 
The sperically averaged electron density of each atom fit to a function of the form exp(a - br) for r >=rmin_cloud_penetration
atom number,atomic symbol, x, y, z, a, b, Rsquared where a and b are in atomic units and Rsquared is the squared correlation coefficient
    1 C      6.047288     7.805575     8.509882     0.272217     1.998916     0.999809
    2 H      6.136298     8.868315     8.239152    -1.106354     2.146571     0.999491
    3 H      5.037738     7.646186     8.916177    -1.601802     2.062597     0.999548
    4 C      7.096653     7.443573     9.562651    -0.014887     1.919858     0.999748
    5 H      6.913329     6.427937     9.943684    -1.601097     2.043847     0.999420
    6 H      8.105297     7.451118     9.120763    -1.243502     2.089422     0.998696
    7 C      7.042758     8.439952    10.738506    -0.329500     1.927067     0.997904
    8 H      7.278819     9.451850    10.368237    -1.883978     2.059247     0.999011
    9 H      6.013537     8.484190    11.133777    -2.314337     1.975893     0.997747
   10 C      8.013704     8.061766    11.869017    -0.326904     1.910969     0.998992
   11 H      9.050921     8.025214    11.501050    -2.129923     2.033554     0.997728
   12 H      7.971297     8.791593    12.690456    -2.517858     2.004274     0.987254
   13 H      7.769840     7.071040    12.282900    -2.069780     2.045140     0.997656
   14 N      6.093153     7.046943     7.186732     0.168711     2.156514     0.995779
   15 C      6.004174     5.523127     7.364560    -0.619127     1.818387     0.999884
   16 C      7.444315     5.021440     7.489531    -0.587060     1.844876     0.999341
   17 C      8.284702     6.007028     6.632707    -0.681813     1.820699     0.999433
   18 C      7.425745     7.273085     6.437823    -0.730013     1.800423     0.999836
   19 H      5.350865     5.316764     8.223666    -3.214477     1.810871     0.998215
   20 H      5.575902     5.150907     6.419989    -2.979288     1.706570     0.997227
   21 H      7.504126     4.000001     7.090961    -3.423791     1.757950     0.996946
   22 H      7.788742     5.002622     8.531599    -2.312837     1.978872     0.997921
   23 H      8.454256     5.573792     5.638438    -3.475223     1.660483     0.995304
   24 H      9.247622     6.234396     7.111744    -2.836721     1.931362     0.997154
   25 H      7.158919     7.368367     5.376905    -3.177901     1.688830     0.996728
   26 H      7.870666     8.198340     6.826857    -3.147750     1.817764     0.998914
   27 H      4.000001     7.292684     6.874879    -3.251367     1.837560     0.994544
   28 C      4.929779     7.526441     6.341371    -0.844624     1.773337     0.999349
   29 H      5.025112     8.610911     6.206759    -3.486110     1.791136     0.993359
   30 H      4.988942     6.990404     5.374967    -3.334794     1.655044     0.994348
   31 Cl     6.118434     5.420536     4.000001     0.218593     1.708684     0.999968
 
 2018/11/18  02:49:34
