20
Coordinates from ORCA-job EMImBr
  C   -1.75377562955446      0.23298743510098     -0.11114968258202
  C   -0.79743635499430     -0.21061213790042      0.98318791421788
  N   0.57850561997119      0.19873459246052      0.69257127326132
  H   -0.78313566012477     -1.29371971148668      1.06141495550957
  H   -1.06891996831833      0.19714034542515      1.95506725608317
  C   1.53913493698222     -0.62783267163676      0.27232737343485
  C   1.02943548943215      1.49785072999457      0.56110235006233
  N   2.62407757741424      0.09491184036825     -0.02429194704013
  H   1.47712493691120     -1.69536304519874      0.25134341800627
  C   2.30600014709496      1.43115401235098      0.10764353616613
  H   0.41560460894919      2.34165214385991      0.80549003134061
  C   3.77925104764014     -0.44864166989826     -0.72319165891347
  H   3.01083958150887      2.20553262369437     -0.12157905680779
  H   4.54609407834746      0.31618685146519     -0.77278417456274
  H   4.16122253808444     -1.30868794710695     -0.18298192435042
  H   3.45079331513234     -0.75044485937236     -1.71738775939962
  Br  0.77573848400340     -1.38991840254282     -2.37468569798274
  H   -1.42479286771683     -0.16794081410631     -1.06738089623369
  H   -1.80087179299999      1.31836346901299     -0.17493648965643
  H   -2.75219008776311     -0.13585278448361      0.11463117944693
