26
Coordinates from ORCA-job EMImCCN3
  C   -2.05318237768412      0.69123125160223      0.18152449104405
  C   -1.06673869899132     -0.45273237734967      0.26868450953342
  N   0.33321284834665      0.00258026969289      0.15632772143595
  H   -1.23262557117643     -1.16636747066333     -0.53367846835289
  H   -1.14856407435521     -0.97699003716080      1.21717370114910
  C   1.38779614685171     -0.77767359111525      0.39820350585009
  C   0.78276067966123      1.19468107246971     -0.36804140202467
  N   2.49434739487143     -0.11966605058187      0.05706739499930
  H   1.34214904836434     -1.79671494350457      0.73178688160452
  C   2.13819488638916      1.11911508405281     -0.42724300515665
  H   0.11378931748416      1.96430785209623     -0.69283705987792
  C   3.85020883507995     -0.65979066492486      0.08377306977108
  H   2.86585516250180      1.80663115238481     -0.81012696654717
  H   4.44866564605601     -0.11038120767949      0.80379345486149
  H   3.79872339134624     -1.70499630061867      0.36682240714226
  H   4.26804801228996     -0.57288757617710     -0.91487477828467
  C   1.05582025012665     -1.16548361224425     -2.81171726351225
  C   0.88183157292833     -2.34530225126998     -2.07155775824078
  C   2.35910396969717     -0.70882336227023     -3.06788620003350
  N   3.45263691727222     -0.32533586423426     -3.20775196879796
  N   0.74214274147611     -3.27652114163837     -1.37955831686698
  C   -0.04825890425308     -0.32018935850002     -3.01581286734077
  N   -0.96922543866468      0.39018882231728     -3.11283864609693
  H   -2.03003840468575      1.14565801546599     -0.80536396480043
  H   -1.86563516259412      1.44371207041871      0.94496161885678
  H   -3.05268818833838      0.29391021943211      0.33754990968553
