   41
jmolscript: load "" {1 1 1} spacegroup "x,y,z" unitcell [{     14.089154     0.000000     0.000000 }, {      0.000000    17.253041     0.000000 }, {      0.000000     0.000000    14.456953 }]
C      8.204211     7.892320     7.059360    -0.135360
H      7.999551     8.828591     7.624721     0.129717
H      9.292850     7.697711     7.146501     0.110452
C      8.057980     8.173191     5.544910    -0.158635
H      8.322250     7.273060     4.957000     0.094666
H      7.024700     8.481041     5.307990     0.109071
C      9.029451     9.278211     5.085551    -0.385611
H      8.852741    10.221101     5.642040     0.146202
H     10.089140     8.972661     5.242490     0.123812
H      8.903161     9.482511     4.000001     0.150246
N      7.426080     6.724931     7.640381     0.187098
C      7.770011     5.467810     6.880360    -0.051282
C      6.836150     5.083930     5.683761    -0.470484
C      4.995400     5.692310     7.821360    -0.453570
C      5.933031     6.967920     7.683271    -0.082685
H      8.809000     5.494290     6.481740     0.118828
H      7.778881     4.604220     7.587341     0.113721
H      6.547311     4.000001     5.765170     0.169833
H      6.947090     5.560841     4.708990     0.155513
H      5.157650     5.135410     8.759401     0.143613
H      4.000001     5.993191     7.422221     0.181433
H      5.650881     7.629410     8.537271     0.136747
H      5.630911     7.549010     6.794980     0.112032
C      9.299551     6.297441     9.360131    -0.434791
C      7.829520     6.606201     9.089691    -0.100872
H      7.626410     7.557020     9.631971     0.127698
H      7.232521     5.820031     9.602911     0.118302
B      5.868160    11.462951     8.095160     0.142687
C      6.311930    10.527041     9.226531     0.116153
C      5.259170    10.588741     6.976151     0.110918
N      4.798231     9.979971     6.106470    -0.373938
N      6.569870     9.798581    10.085041    -0.382767
C      4.840961    12.508781     8.629201     0.100570
C      7.116701    12.151951     7.530881     0.090792
N      4.051860    13.253111     9.037861    -0.355877
N      8.067881    12.691961     7.157481    -0.358066
H      5.016090     4.789220     7.193250     0.137683
H      5.903351     5.633580     5.651820     0.156201
H      9.577711     5.340940     8.881871     0.133514
H      9.447661     6.218601    10.456981     0.177491
H      9.957551     7.118151     9.021651     0.148944
 
 Chargemol version 3.5 September 26, 2017.
See ddec.sourceforge.net for latest version.
 
Computational parameters:
Number of radial integration shells =    100
Cutoff radius (pm) =    500
Error in the integrated total number of electrons before renormalization (e) =    7.1416E-04
Charge convergence tolerance =    1.0000E-05
Minimum radius for electron cloud penetration fitting (pm) =    200
Minimum decay exponent for electron density of buried atom tails =   1.7500
Maximum decay exponent for electron density of buried atom tails =  2.5000
Number of iterations to convergence =      7
 
The following XYZ coordinates are in angstroms. The atomic dipoles and quadrupoles are in atomic units.
atom number, atomic symbol, x, y, z, net_charge, dipole_x, dipole_y, dipole_z, dipole_mag, Qxy, Qxz, Qyz,Q(x^2-y^2), Q(3z^2 - R^2), three eigenvalues of traceless quadrupole moment tensor
    1 C      8.204211     7.892320     7.059360    -0.135360    -0.056755    -0.039125    -0.041077     0.080244     0.058563    -0.023597    -0.048108    -0.038141    -0.051974    -0.057506    -0.037650     0.095156
    2 H      7.999551     8.828591     7.624721     0.129717    -0.002834     0.048004     0.012578     0.049706     0.004539    -0.000205     0.005545    -0.018831    -0.007369    -0.009581    -0.003911     0.013492
    3 H      9.292850     7.697711     7.146501     0.110452     0.045474     0.003107    -0.013151     0.047439     0.000182    -0.002995    -0.003454     0.019616    -0.027810    -0.011484    -0.003351     0.014835
    4 C      8.057980     8.173191     5.544910    -0.158635     0.077156     0.077026     0.036495     0.114969     0.003058    -0.009726    -0.021435    -0.032280     0.113239    -0.036293    -0.011930     0.048223
    5 H      8.322250     7.273060     4.957000     0.094666     0.023502    -0.022413    -0.028415     0.043152    -0.004944    -0.008803     0.005224    -0.005190     0.016020    -0.010606    -0.003240     0.013845
    6 H      7.024700     8.481041     5.307990     0.109071    -0.033782     0.027646    -0.013587     0.045717     0.000172     0.007939    -0.006222     0.008908     0.007927    -0.010482    -0.001425     0.011907
    7 C      9.029451     9.278211     5.085551    -0.385611    -0.069423    -0.066616     0.029566     0.100655     0.029739    -0.009893    -0.023308     0.005712    -0.063554    -0.035219    -0.013049     0.048269
    8 H      8.852741    10.221101     5.642040     0.146202    -0.009913     0.025648     0.015059     0.031351     0.003610    -0.004391     0.001933    -0.007147    -0.014797    -0.008708     0.001162     0.007547
    9 H     10.089140     8.972661     5.242490     0.123812     0.026140    -0.008872     0.003046     0.027772     0.000087    -0.000177    -0.004393     0.008356    -0.039497    -0.014321     0.003556     0.010764
   10 H      8.903161     9.482511     4.000001     0.150246    -0.009301     0.005340    -0.029676     0.031554     0.006550     0.004303    -0.004460    -0.000080     0.024357    -0.012474     0.002489     0.009985
   11 N      7.426080     6.724931     7.640381     0.187098    -0.002363    -0.000422    -0.010085     0.010366     0.012824     0.011491     0.001418     0.012946     0.018873    -0.018606    -0.001208     0.019813
   12 C      7.770011     5.467810     6.880360    -0.051282    -0.094522     0.045410    -0.050080     0.116208    -0.026033    -0.005682     0.054552    -0.085178    -0.036359    -0.051192    -0.034773     0.085965
   13 C      6.836150     5.083930     5.683761    -0.470484     0.071569     0.020506     0.071778     0.103415    -0.023817     0.116408    -0.001705     0.004870    -0.023263    -0.119249     0.000408     0.118841
   14 C      4.995400     5.692310     7.821360    -0.453570     0.068067     0.076496    -0.011052     0.102989     0.052045     0.030696    -0.009456    -0.074562    -0.177940    -0.080958    -0.012936     0.093894
   15 C      5.933031     6.967920     7.683271    -0.082685     0.015606    -0.105514     0.010445     0.107172    -0.007717    -0.021388    -0.004356     0.112888    -0.193296    -0.068025    -0.023995     0.092021
   16 H      8.809000     5.494290     6.481740     0.118828     0.045167    -0.011364    -0.034848     0.058169    -0.003030    -0.017139     0.012631     0.017626    -0.038240    -0.025581    -0.000294     0.025875
   17 H      7.778881     4.604220     7.587341     0.113721    -0.001855    -0.049230     0.022029     0.053965    -0.005294     0.000867    -0.006938    -0.039568     0.006246    -0.021521    -0.000384     0.021905
   18 H      6.547311     4.000001     5.765170     0.169833    -0.008994    -0.034475     0.011081     0.037313     0.008532     0.011439    -0.007745    -0.022765    -0.017226    -0.022283     0.004394     0.017889
   19 H      6.947090     5.560841     4.708990     0.155513    -0.029202     0.027872    -0.027066     0.048602     0.004524     0.020071    -0.012951    -0.003047     0.038036    -0.025891    -0.001585     0.027477
   20 H      5.157650     5.135410     8.759401     0.143613     0.014435    -0.028950     0.016352     0.036247     0.006836     0.008292    -0.012556    -0.022268     0.001356    -0.020487     0.001161     0.019326
   21 H      4.000001     5.993191     7.422221     0.181433    -0.023541     0.008239    -0.033884     0.042073     0.002529     0.016649    -0.007694    -0.000391    -0.023009    -0.021914     0.005782     0.016132
   22 H      5.650881     7.629410     8.537271     0.136747    -0.034830     0.025208     0.039841     0.058617    -0.007433    -0.013203     0.010881     0.019208     0.003316    -0.016793    -0.006756     0.023549
   23 H      5.630911     7.549010     6.794980     0.112032    -0.024282     0.023342    -0.034122     0.047946     0.001229     0.004651    -0.007451     0.020812     0.005949    -0.015103     0.003213     0.011889
   24 C      9.299551     6.297441     9.360131    -0.434791    -0.079151     0.027428    -0.005415     0.083943    -0.019897     0.010710     0.011504     0.052901    -0.104865    -0.042908    -0.008179     0.051087
   25 C      7.829520     6.606201     9.089691    -0.100872     0.086785    -0.017684    -0.053423     0.103433     0.012265     0.032832    -0.016336     0.043931     0.234006    -0.068533    -0.020673     0.089206
   26 H      7.626410     7.557020     9.631971     0.127698     0.010644     0.036355     0.038526     0.054030     0.002632     0.005355     0.002875     0.001003     0.032693    -0.008241    -0.004948     0.013190
   27 H      7.232521     5.820031     9.602911     0.118302    -0.014076    -0.032275     0.038165     0.051927     0.006713    -0.001776    -0.012655     0.002204     0.030174    -0.015411    -0.002654     0.018065
   28 B      5.868160    11.462951     8.095160     0.142687    -0.011158     0.016003     0.003295     0.019786     0.013495     0.011008    -0.007286     0.003526     0.047629    -0.025506     0.004966     0.020539
   29 C      6.311930    10.527041     9.226531     0.116153    -0.013213     0.056328    -0.003802     0.057982     0.045790    -0.037500     0.099259     0.080415    -0.123703    -0.146770     0.063832     0.082937
   30 C      5.259170    10.588741     6.976151     0.110918     0.002906     0.045201     0.024145     0.051328    -0.043268    -0.063542    -0.091949     0.034938    -0.124437    -0.145736     0.067339     0.078397
   31 N      4.798231     9.979971     6.106470    -0.373938     0.006178     0.072433     0.040541     0.083236    -0.064334    -0.089785    -0.119378     0.029514    -0.207774    -0.200861     0.097675     0.103187
   32 N      6.569870     9.798581    10.085041    -0.382767    -0.027624     0.074494    -0.012669     0.080455     0.032550    -0.048667     0.127115     0.088125    -0.224989    -0.185218     0.088533     0.096685
   33 C      4.840961    12.508781     8.629201     0.100570     0.041039    -0.028721    -0.019044     0.053588     0.089617     0.049045    -0.048941    -0.000115     0.138488    -0.138671     0.066535     0.072136
   34 C      7.116701    12.151951     7.530881     0.090792    -0.050908    -0.002715     0.018624     0.054276    -0.073533     0.066967     0.032138    -0.095347     0.165308    -0.142980     0.059566     0.083413
   35 N      4.051860    13.253111     9.037861    -0.355877     0.047789    -0.044401    -0.023798     0.069438     0.129775     0.071537    -0.067479    -0.009725     0.191430    -0.198619     0.097652     0.100967
   36 N      8.067881    12.691961     7.157481    -0.358066    -0.067556    -0.008474     0.032040     0.075248    -0.112856     0.078465     0.046680    -0.129873     0.213576    -0.196891     0.094463     0.102427
   37 H      5.016090     4.789220     7.193250     0.137683    -0.017094    -0.035534    -0.007612     0.040160     0.011520     0.000155     0.004118    -0.010923    -0.028310    -0.011222    -0.006712     0.017934
   38 H      5.903351     5.633580     5.651820     0.156201    -0.027605     0.022808    -0.019141     0.040603    -0.008759     0.014533     0.001326     0.016696     0.006819    -0.016878    -0.003792     0.020670
   39 H      9.577711     5.340940     8.881871     0.133514     0.005870    -0.027461    -0.009282     0.029575    -0.007437    -0.003924     0.007546    -0.009518    -0.038538    -0.015221    -0.002404     0.017625
   40 H      9.447661     6.218601    10.456981     0.177491     0.001903     0.003205     0.032233     0.032448    -0.003193     0.000491     0.001115     0.011053     0.025917    -0.010777     0.002058     0.008719
   41 H      9.957551     7.118151     9.021651     0.148944     0.017384     0.029466    -0.000996     0.034227     0.007161    -0.004522    -0.001658    -0.002903    -0.047338    -0.016667     0.000919     0.015748
 
The sperically averaged electron density of each atom fit to a function of the form exp(a - br) for r >=rmin_cloud_penetration
atom number,atomic symbol, x, y, z, a, b, Rsquared where a and b are in atomic units and Rsquared is the squared correlation coefficient
    1 C      8.204211     7.892320     7.059360    -0.433176     1.833367     0.999851
    2 H      7.999551     8.828591     7.624721    -2.696784     1.753442     0.999997
    3 H      9.292850     7.697711     7.146501    -1.476699     2.052567     0.999068
    4 C      8.057980     8.173191     5.544910    -0.549613     1.829578     0.999933
    5 H      8.322250     7.273060     4.957000    -1.811620     2.035139     0.999857
    6 H      7.024700     8.481041     5.307990    -1.710883     1.985958     0.999199
    7 C      9.029451     9.278211     5.085551    -0.654748     1.838873     0.999548
    8 H      8.852741    10.221101     5.642040    -1.942403     1.974392     0.999507
    9 H     10.089140     8.972661     5.242490    -2.451225     2.001550     0.996655
   10 H      8.903161     9.482511     4.000001    -3.004469     1.934073     0.995550
   11 N      7.426080     6.724931     7.640381     0.144862     2.140723     0.997035
   12 C      7.770011     5.467810     6.880360     0.512971     2.067841     0.999631
   13 C      6.836150     5.083930     5.683761    -0.183092     1.920417     0.999540
   14 C      4.995400     5.692310     7.821360    -0.391425     1.881040     0.999377
   15 C      5.933031     6.967920     7.683271    -0.385421     1.842742     0.999758
   16 H      8.809000     5.494290     6.481740    -1.745451     2.064421     0.999587
   17 H      7.778881     4.604220     7.587341    -1.180715     2.176982     0.998517
   18 H      6.547311     4.000001     5.765170    -2.173320     2.111972     0.994170
   19 H      6.947090     5.560841     4.708990    -2.472560     2.006070     0.995381
   20 H      5.157650     5.135410     8.759401    -2.331896     2.020588     0.994302
   21 H      4.000001     5.993191     7.422221    -2.725132     1.963953     0.997646
   22 H      5.650881     7.629410     8.537271    -2.408364     1.831155     0.999694
   23 H      5.630911     7.549010     6.794980    -1.447437     2.003028     0.998652
   24 C      9.299551     6.297441     9.360131    -0.243548     1.932716     0.999236
   25 C      7.829520     6.606201     9.089691    -0.074827     1.941305     0.999985
   26 H      7.626410     7.557020     9.631971    -1.210234     2.090890     0.999436
   27 H      7.232521     5.820031     9.602911    -1.865870     2.035199     0.999373
   28 B      5.868160    11.462951     8.095160    -1.049616     1.734643     0.999971
   29 C      6.311930    10.527041     9.226531    -0.341590     1.923637     0.999888
   30 C      5.259170    10.588741     6.976151    -0.387375     1.908727     0.999802
   31 N      4.798231     9.979971     6.106470    -0.794555     1.863122     0.998460
   32 N      6.569870     9.798581    10.085041    -0.749178     1.878032     0.998263
   33 C      4.840961    12.508781     8.629201    -0.133475     1.957424     0.997985
   34 C      7.116701    12.151951     7.530881    -0.361776     1.910461     0.999621
   35 N      4.051860    13.253111     9.037861    -0.244072     1.945096     0.999570
   36 N      8.067881    12.691961     7.157481    -0.594237     1.886172     0.998677
   37 H      5.016090     4.789220     7.193250    -1.699973     2.144469     0.998567
   38 H      5.903351     5.633580     5.651820    -1.566468     2.103525     0.999506
   39 H      9.577711     5.340940     8.881871    -1.565258     2.180629     0.994393
   40 H      9.447661     6.218601    10.456981    -2.648941     2.045426     0.997150
   41 H      9.957551     7.118151     9.021651    -2.337202     2.015714     0.998992
 
 2018/11/18  01:37:02
