31

C        -0.257489    1.745993    2.243911
H        -0.134380    2.810953    1.996752
H        -1.252723    1.617696    2.694291
C         0.822411    1.308861    3.233773
H         0.638108    0.275323    3.562099
H         1.813759    1.329770    2.756283
C         0.824451    2.237100    4.465373
H         1.024637    3.272285    4.141379
H        -0.180106    2.240911    4.921485
C         1.865505    1.810828    5.512889
H         2.880305    1.824105    5.086330
H         1.853747    2.485739    6.380765
H         1.665198    0.790382    5.874029
N        -0.307791    1.019703    0.904391
C        -0.460861   -0.501148    1.057175
C         0.954543   -1.086765    1.071011
C         1.844759   -0.064639    0.308560
C         0.991613    1.198869    0.095977
H        -1.063911   -0.694343    1.954639
H        -0.978294   -0.835894    0.144863
H         0.937856   -2.051340    0.546502
H         1.322527   -1.248085    2.092570
H         2.099282   -0.462262   -0.683908
H         2.765968    0.153690    0.866612
H         0.682007    1.251052   -0.957680
H         1.459785    2.138223    0.417859
H        -2.398410    1.380842    0.698026
C        -1.482643    1.576538    0.127673
H        -1.335588    2.656068    0.004401
H        -1.510631    1.067514   -0.849851
I        -0.369322   -0.871936   -2.623561
