26

  H   -5.22179779122510     -0.34028180849793     -0.83291441454296
  C   -4.21139306001989      0.08344058954538     -1.02818245132351
  C   -3.20991765019288     -0.34117993911714      0.06045046446375
  H   -3.88423928262577     -0.26874854763936     -2.03226992529822
  H   -4.31439098371826      1.19185025807339     -1.07744485077484
  C   -1.78908132914667      0.20321126303778     -0.18349629357393
  H   -3.16950599174864     -1.45521540944137      0.10798231242358
  H   -3.58115002345758     -0.00191297583760      1.05834123429755
  C   -0.80304267223758     -0.21230420636832      0.92684518184506
  H   -1.81877758528485      1.31649931144045     -0.24986998255980
  H   -1.38569531577376     -0.17423073792467     -1.15153498773430
  N   0.58580478489423      0.18558369474399      0.64642156184534
  H   -0.79945569979135     -1.31668286767282      1.04232833375258
  H   -1.08778593912563      0.22424788573350      1.91087450388393
  C   1.54208124794804     -0.64322167131225      0.13190747811088
  C   1.07522522149158      1.49289754364066      0.62639586323826
  N   2.68130473037414      0.09390416835764     -0.04114392174735
  H   1.52149566560205     -1.73153462438647      0.22677449142711
  C   2.37789235189436      1.43445185715328      0.19482453820482
  H   0.46132469342345      2.34663423246919      0.93181132894997
  C   3.86668611281265     -0.42564986092224     -0.71862082260891
  H   3.11757709396354      2.22853419823253      0.04256001376136
  H   4.61676863263284      0.38607965598710     -0.80888482261693
  H   4.30562814263902     -1.26624605603164     -0.13905924514600
  H   3.54835240270563     -0.78952130408418     -1.72481130975803
  Br  0.87293324396644     -1.38318364917889     -2.41146227851942
