   47
jmolscript: load "" {1 1 1} spacegroup "x,y,z" unitcell [{     14.376010     0.000000     0.000000 }, {      0.000000    18.054681     0.000000 }, {      0.000000     0.000000    16.120957 }]
N      7.017950     6.854573     7.954045     0.153706
C      6.682053     8.008943     8.890277    -0.118916
H      7.089293     8.900461     8.428936     0.118716
H      5.602831     8.104914     8.867411     0.111839
C      7.131129     7.919337    10.337529    -0.147105
H      6.721015     7.029280    10.814014     0.088711
H      8.213389     7.870965    10.411910     0.107731
C      6.631523     9.162397    11.073116    -0.399197
H      7.060487    10.059654    10.637100     0.154882
H      5.545981     9.237352    11.023740     0.130600
H      6.918447     9.120108    12.121014     0.139319
C      6.895510     5.495522     8.603154    -0.073420
H      6.009257     5.539937     9.228331     0.115179
H      6.687443     4.806487     7.788097     0.108608
C      8.080959     4.969589     9.389685    -0.436873
H      7.789416     4.000001     9.789958     0.165898
H      8.359035     5.603161    10.222184     0.145567
H      8.949897     4.812171     8.758855     0.149252
C      8.369164     7.060663     7.274242    -0.080741
H      8.592572     6.110102     6.793724     0.100817
H      8.181056     7.800184     6.500998     0.131379
C      9.525593     7.545521     8.124747    -0.435210
H     10.376078     7.641508     7.451506     0.171978
H      9.807120     6.863604     8.918281     0.131420
H      9.345510     8.532254     8.539564     0.163309
C      6.009874     6.894026     6.801917    -0.099255
H      6.049823     7.901620     6.408129     0.125759
H      6.406852     6.210177     6.055472     0.109440
C      4.579636     6.532574     7.144599    -0.435279
H      4.000001     6.664621     6.233626     0.180407
H      4.144671     7.194969     7.886683     0.154485
H      4.457985     5.502576     7.467777     0.133491
S      6.562288    10.598970     6.266368     0.926640
O      7.560153     9.806732     5.581884    -0.524129
O      5.256954    10.008808     6.445647    -0.517450
N      7.022759    11.201378     7.639272    -0.650510
S      8.517709    11.551376     8.055595     0.935511
O      8.917305    10.719295     9.169106    -0.518141
O      9.453088    11.769942     6.989646    -0.494987
C      6.246298    12.048749     5.158158     0.526154
F      7.366916    12.718830     4.915899    -0.170429
F      5.745453    11.611570     4.000001    -0.186389
F      5.363921    12.873888     5.719544    -0.178481
C      8.203622    13.211206     8.812515     0.529719
F      9.352836    13.704265     9.275682    -0.182713
F      7.343080    13.118535     9.826891    -0.180453
F      7.709184    14.054707     7.909039    -0.180842
 
 Chargemol version 3.5 September 26, 2017.
See ddec.sourceforge.net for latest version.
 
Computational parameters:
Number of radial integration shells =    100
Cutoff radius (pm) =    500
Error in the integrated total number of electrons before renormalization (e) =    2.1443E-03
Charge convergence tolerance =    1.0000E-05
Minimum radius for electron cloud penetration fitting (pm) =    200
Minimum decay exponent for electron density of buried atom tails =   1.7500
Maximum decay exponent for electron density of buried atom tails =  2.5000
Number of iterations to convergence =      7
 
The following XYZ coordinates are in angstroms. The atomic dipoles and quadrupoles are in atomic units.
atom number, atomic symbol, x, y, z, net_charge, dipole_x, dipole_y, dipole_z, dipole_mag, Qxy, Qxz, Qyz,Q(x^2-y^2), Q(3z^2 - R^2), three eigenvalues of traceless quadrupole moment tensor
    1 N      7.017950     6.854573     7.954045     0.153706     0.006654     0.006457     0.019213     0.021334     0.001672     0.022169    -0.005760     0.031747    -0.025368    -0.023458    -0.008772     0.032230
    2 C      6.682053     8.008943     8.890277    -0.118916     0.043851    -0.055010     0.032936     0.077678    -0.037471    -0.014325     0.077014    -0.056027     0.005173    -0.069247    -0.034159     0.103406
    3 H      7.089293     8.900461     8.428936     0.118716     0.017229     0.034554    -0.007751     0.039381     0.002589    -0.009795     0.000367    -0.008230     0.016756    -0.012706     0.001660     0.011046
    4 H      5.602831     8.104914     8.867411     0.111839    -0.038472     0.012582     0.003919     0.040666    -0.007542     0.000484     0.006807     0.016709    -0.010076    -0.013739     0.000535     0.013204
    5 C      7.131129     7.919337    10.337529    -0.147105    -0.053199     0.103534    -0.014041     0.117246     0.012370     0.003265     0.013898    -0.012967     0.116126    -0.033615    -0.009177     0.042792
    6 H      6.721015     7.029280    10.814014     0.088711    -0.022566    -0.023810     0.025911     0.041804     0.006296    -0.005679    -0.007926    -0.013967     0.007813    -0.011350    -0.003915     0.015265
    7 H      8.213389     7.870965    10.411910     0.107731     0.040939     0.016194     0.007310     0.044628     0.002463     0.009447     0.005674     0.023266    -0.007435    -0.013592    -0.004556     0.018148
    8 C      6.631523     9.162397    11.073116    -0.399197     0.038907    -0.076621    -0.057974     0.103660    -0.022376     0.003298     0.030725    -0.018796    -0.012291    -0.037854    -0.003021     0.040876
    9 H      7.060487    10.059654    10.637100     0.154882     0.014919     0.022070    -0.015519     0.030830    -0.000994    -0.000210     0.001420    -0.014335    -0.014942    -0.005149    -0.004715     0.009864
   10 H      5.545981     9.237352    11.023740     0.130600    -0.024510     0.001458    -0.005769     0.025222    -0.002852     0.001219     0.005037     0.006681    -0.028963    -0.011832     0.002589     0.009242
   11 H      6.918447     9.120108    12.121014     0.139319     0.013202    -0.003791     0.023537     0.027252    -0.005604     0.005585     0.001561    -0.005777     0.019082    -0.011269     0.002724     0.008546
   12 C      6.895510     5.495522     8.603154    -0.073420     0.099705     0.037759     0.032641     0.111500     0.005597     0.006088    -0.033500    -0.086625    -0.087704    -0.044311    -0.025121     0.069431
   13 H      6.009257     5.539937     9.228331     0.115179    -0.033567    -0.000671     0.032932     0.047029    -0.001685    -0.016242    -0.011987     0.006783    -0.014178    -0.022167     0.002713     0.019453
   14 H      6.687443     4.806487     7.788097     0.108608    -0.001809    -0.036743    -0.029472     0.047137     0.000890     0.008471     0.008475    -0.029394     0.000578    -0.018843    -0.000280     0.019123
   15 C      8.080959     4.969589     9.389685    -0.436873    -0.064611     0.037222    -0.045710     0.087461    -0.020232     0.036804    -0.025591     0.029025    -0.032578    -0.040444    -0.018393     0.058837
   16 H      7.789416     4.000001     9.789958     0.165898    -0.011012    -0.025202     0.009749     0.029179     0.004048     0.003479    -0.006676    -0.002894    -0.017195    -0.011043     0.002635     0.008408
   17 H      8.359035     5.603161    10.222184     0.145567     0.008920     0.013871     0.023725     0.028894    -0.000272     0.013683     0.004715     0.008580     0.032621    -0.012931    -0.007363     0.020294
   18 H      8.949897     4.812171     8.758855     0.149252     0.023934    -0.005175    -0.017117     0.029877    -0.006774    -0.006062     0.001623     0.022296     0.003256    -0.013587    -0.001689     0.015276
   19 C      8.369164     7.060663     7.274242    -0.080741     0.031981     0.026669     0.110902     0.118462     0.018433    -0.066744    -0.005934     0.074251     0.003814    -0.053379    -0.037124     0.090503
   20 H      8.592572     6.110102     6.793724     0.100817     0.021658    -0.035627    -0.018163     0.045478    -0.002388    -0.013334     0.011707    -0.004146    -0.013952    -0.018540     0.000146     0.018395
   21 H      8.181056     7.800184     6.500998     0.131379     0.007058     0.037448    -0.032633     0.050171     0.004995    -0.007385    -0.008129     0.016133     0.037306    -0.017040    -0.001913     0.018953
   22 C      9.525593     7.545521     8.124747    -0.435210    -0.070514    -0.019399    -0.047543     0.087229     0.042215     0.042805     0.001961     0.064189     0.026255    -0.062586    -0.010754     0.073340
   23 H     10.376078     7.641508     7.451506     0.171978     0.018362     0.008433    -0.021009     0.029149     0.005815    -0.002954     0.000184     0.013819     0.018395    -0.012175     0.003378     0.008797
   24 H      9.807120     6.863604     8.918281     0.131420     0.009371    -0.013765     0.020783     0.026631     0.000384     0.015780    -0.007754     0.001690     0.008624    -0.016906    -0.001638     0.018544
   25 H      9.345510     8.532254     8.539564     0.163309    -0.000906     0.027562     0.009335     0.029114     0.001947     0.008462     0.006509     0.003378     0.007071    -0.009069    -0.003409     0.012478
   26 C      6.009874     6.894026     6.801917    -0.099255    -0.072767    -0.028322     0.070744     0.105366    -0.003169     0.061540     0.007631     0.075951     0.174578    -0.068526    -0.031430     0.099956
   27 H      6.049823     7.901620     6.408129     0.125759    -0.011484     0.038713    -0.020669     0.045363     0.006054     0.009046    -0.005110     0.001913     0.026961    -0.014768     0.000864     0.013904
   28 H      6.406852     6.210177     6.055472     0.109440     0.004640    -0.026175    -0.039649     0.047735    -0.002875     0.000151     0.012007     0.005137     0.037508    -0.014862    -0.003087     0.017949
   29 C      4.579636     6.532574     7.144599    -0.435279     0.082951     0.032850    -0.023893     0.092363     0.017636    -0.025141    -0.011123     0.042848    -0.077125    -0.035745    -0.014735     0.050479
   30 H      4.000001     6.664621     6.233626     0.180407    -0.010602     0.010289    -0.027233     0.030982     0.000849     0.002073    -0.005993     0.009768     0.017148    -0.010218     0.001793     0.008424
   31 H      4.144671     7.194969     7.886683     0.154485    -0.014876     0.023461     0.014114     0.031159    -0.004077    -0.011082     0.007337    -0.001219    -0.011982    -0.013486    -0.001576     0.015062
   32 H      4.457985     5.502576     7.467777     0.133491    -0.006526    -0.028281     0.005028     0.029457     0.005779    -0.008452    -0.005494    -0.015345    -0.031761    -0.015977    -0.001312     0.017289
   33 S      6.562288    10.598970     6.266368     0.926640     0.019150    -0.116246     0.106200     0.158614     0.014713    -0.023760     0.077888     0.107070     0.068084    -0.114366     0.040152     0.074215
   34 O      7.560153     9.806732     5.581884    -0.524129     0.052941    -0.017314    -0.028135     0.062402    -0.036581    -0.041410     0.027628     0.034894    -0.038223    -0.041110    -0.033987     0.075097
   35 O      5.256954    10.008808     6.445647    -0.517450    -0.042888    -0.011900     0.023063     0.050129     0.034623    -0.009651     0.011340     0.050281    -0.115730    -0.047448    -0.014750     0.062197
   36 N      7.022759    11.201378     7.639272    -0.650510     0.012189    -0.010543    -0.012090     0.020147     0.016786     0.036106     0.022580     0.109213    -0.013247    -0.061409    -0.016871     0.078280
   37 S      8.517709    11.551376     8.055595     0.935511     0.011131    -0.161725    -0.055838     0.171455     0.033136     0.020093    -0.007350     0.126368    -0.020349    -0.070280    -0.008196     0.078476
   38 O      8.917305    10.719295     9.169106    -0.518141     0.016047    -0.030319     0.030155     0.045674    -0.016930     0.018432    -0.047456    -0.019277     0.106592    -0.040910    -0.031148     0.072059
   39 O      9.453088    11.769942     6.989646    -0.494987     0.050685    -0.004083    -0.058776     0.077719     0.020547    -0.055370    -0.019042     0.027787     0.067411    -0.044666    -0.031760     0.076426
   40 C      6.246298    12.048749     5.158158     0.526154    -0.029500     0.119496    -0.097069     0.156754     0.014444    -0.016848     0.055790     0.070252    -0.015740    -0.080323     0.035610     0.044713
   41 F      7.366916    12.718830     4.915899    -0.170429     0.007322     0.000516    -0.001444     0.007480     0.060637    -0.022847    -0.004857     0.086720    -0.150217    -0.057820    -0.045086     0.102907
   42 F      5.745453    11.611570     4.000001    -0.186389     0.000043     0.004101    -0.001072     0.004239     0.021427     0.046313     0.054376     0.007817     0.172623    -0.058227    -0.045160     0.103386
   43 F      5.363921    12.873888     5.719544    -0.178481    -0.000962     0.002133     0.001549     0.002807    -0.055583    -0.050973     0.045566     0.017204    -0.042281    -0.054247    -0.048902     0.103149
   44 C      8.203622    13.211206     8.812515     0.529719    -0.024295     0.141817     0.064691     0.157757     0.016995     0.004459    -0.045335     0.096244     0.047838    -0.080445     0.036115     0.044329
   45 F      9.352836    13.704265     9.275682    -0.182713     0.002411     0.001689    -0.001038     0.003121     0.044102     0.044232     0.011889     0.111202    -0.094161    -0.056343    -0.045939     0.102281
   46 F      7.343080    13.118535     9.826891    -0.180453    -0.001741     0.000383    -0.004219     0.004580     0.015449    -0.070459    -0.017488     0.072399     0.102476    -0.056810    -0.044217     0.101027
   47 F      7.709184    14.054707     7.909039    -0.180842    -0.000947     0.005223     0.000239     0.005314    -0.032212     0.036153    -0.069334    -0.019395     0.076610    -0.059780    -0.041206     0.100986
 
The sperically averaged electron density of each atom fit to a function of the form exp(a - br) for r >=rmin_cloud_penetration
atom number,atomic symbol, x, y, z, a, b, Rsquared where a and b are in atomic units and Rsquared is the squared correlation coefficient
    1 N      7.017950     6.854573     7.954045     0.865444     2.295121     0.998404
    2 C      6.682053     8.008943     8.890277    -0.655940     1.785834     0.999929
    3 H      7.089293     8.900461     8.428936    -2.421197     1.771668     0.999951
    4 H      5.602831     8.104914     8.867411    -1.459119     2.025914     0.998707
    5 C      7.131129     7.919337    10.337529    -0.374477     1.878151     0.999862
    6 H      6.721015     7.029280    10.814014    -2.015061     2.021685     0.999804
    7 H      8.213389     7.870965    10.411910    -1.634173     2.056542     0.999645
    8 C      6.631523     9.162397    11.073116    -0.424035     1.881215     0.999772
    9 H      7.060487    10.059654    10.637100    -1.733750     2.033358     0.999399
   10 H      5.545981     9.237352    11.023740    -2.745059     1.933660     0.997821
   11 H      6.918447     9.120108    12.121014    -2.619538     2.021811     0.994991
   12 C      6.895510     5.495522     8.603154     0.579380     2.084472     0.999545
   13 H      6.009257     5.539937     9.228331    -1.411337     2.119589     0.999691
   14 H      6.687443     4.806487     7.788097    -1.302719     2.162425     0.999613
   15 C      8.080959     4.969589     9.389685    -0.035916     1.961589     0.999866
   16 H      7.789416     4.000001     9.789958    -2.572736     2.074270     0.994303
   17 H      8.359035     5.603161    10.222184    -1.604407     2.144273     0.996585
   18 H      8.949897     4.812171     8.758855    -1.593833     2.168390     0.999295
   19 C      8.369164     7.060663     7.274242     0.001858     1.956501     0.999786
   20 H      8.592572     6.110102     6.793724    -1.889500     2.059383     0.999711
   21 H      8.181056     7.800184     6.500998    -1.623082     2.042662     0.999872
   22 C      9.525593     7.545521     8.124747    -0.227788     1.902326     0.999957
   23 H     10.376078     7.641508     7.451506    -2.846559     1.984767     0.999152
   24 H      9.807120     6.863604     8.918281    -1.797365     2.104725     0.999013
   25 H      9.345510     8.532254     8.539564    -1.472105     2.073190     0.999364
   26 C      6.009874     6.894026     6.801917     0.113577     1.979468     0.999758
   27 H      6.049823     7.901620     6.408129    -1.040984     2.117391     0.999675
   28 H      6.406852     6.210177     6.055472    -2.076026     2.024980     0.999299
   29 C      4.579636     6.532574     7.144599    -0.159130     1.943531     0.999467
   30 H      4.000001     6.664621     6.233626    -2.572378     2.046806     0.997104
   31 H      4.144671     7.194969     7.886683    -1.880663     2.092341     0.999639
   32 H      4.457985     5.502576     7.467777    -1.958381     2.126267     0.994246
   33 S      6.562288    10.598970     6.266368     1.161267     2.091906     0.999927
   34 O      7.560153     9.806732     5.581884    -0.872048     1.871899     0.999949
   35 O      5.256954    10.008808     6.445647    -0.902852     1.868041     0.999806
   36 N      7.022759    11.201378     7.639272    -0.497976     1.780530     0.999945
   37 S      8.517709    11.551376     8.055595     1.301163     2.117478     0.999919
   38 O      8.917305    10.719295     9.169106    -0.846116     1.873374     0.999973
   39 O      9.453088    11.769942     6.989646    -0.723450     1.912575     0.999823
   40 C      6.246298    12.048749     5.158158     0.013543     2.046959     0.998160
   41 F      7.366916    12.718830     4.915899    -0.043082     2.256882     0.999433
   42 F      5.745453    11.611570     4.000001     0.130364     2.302592     0.998088
   43 F      5.363921    12.873888     5.719544    -0.440495     2.187078     0.998386
   44 C      8.203622    13.211206     8.812515    -0.005503     2.043098     0.998071
   45 F      9.352836    13.704265     9.275682     0.228292     2.320214     0.999300
   46 F      7.343080    13.118535     9.826891    -0.392726     2.204127     0.998409
   47 F      7.709184    14.054707     7.909039     0.391670     2.328172     0.999643
 
 2018/11/18  01:07:03
