   39
jmolscript: load "" {1 1 1} spacegroup "x,y,z" unitcell [{     13.374240     0.000000     0.000000 }, {      0.000000    16.216353     0.000000 }, {      0.000000     0.000000    15.831307 }]
C      5.783311     7.738576     7.849130    -0.135296
H      5.670476     8.727629     7.358429     0.127631
H      4.795817     7.422555     8.250678     0.107635
C      6.826598     7.826717     8.967839    -0.200791
H      6.936171     6.852685     9.499360     0.086494
H      7.819062     8.098792     8.549916     0.112866
C      6.425631     8.915965     9.993011    -0.108036
H      6.280999     9.877336     9.451857     0.108488
H      5.443605     8.652268    10.453118     0.083798
C      7.484933     9.113534    11.090808    -0.395186
H      8.440671     9.476153    10.652623     0.135201
H      7.147669     9.872139    11.831338     0.132791
H      7.691653     8.168486    11.644297     0.118352
N      6.077998     6.755196     6.695603     0.208000
C      6.343755     5.321128     7.202818    -0.124196
C      7.848039     5.083919     7.026847    -0.191518
C      8.159627     5.861138     5.732140    -0.183317
C      7.352873     7.153687     5.896034    -0.124588
H      5.969635     5.232182     8.241103     0.122157
H      5.756076     4.635891     6.558721     0.115518
H      8.081510     4.000001     6.961182     0.129591
H      8.417204     5.504859     7.883278     0.118695
H      7.826156     5.284076     4.839670     0.103769
H      9.239079     6.085588     5.604598     0.142877
H      7.039438     7.630578     4.948535     0.130786
H      7.906728     7.914923     6.479044     0.123978
H      4.000001     6.378640     6.316835     0.154404
C      4.880644     6.774382     5.771149    -0.362686
H      4.703324     7.821948     5.451030     0.179989
H      5.097733     6.134116     4.892180     0.156172
S      6.398841    10.605783     5.111648     1.219200
O      7.242309    10.120814     4.000001    -0.539481
O      5.018583    10.084033     5.248392    -0.544645
N      7.062702    10.553538     6.586750    -0.701874
S      8.670923    10.804647     6.813168     1.236908
O      9.374199     9.527450     7.092989    -0.544012
O      9.308768    11.817166     5.964650    -0.504784
F      6.194374    12.216273     4.810840    -0.244519
F      8.530857    11.488722     8.320367    -0.250372
 
 Chargemol version 3.5 September 26, 2017.
See ddec.sourceforge.net for latest version.
 
Computational parameters:
Number of radial integration shells =    100
Cutoff radius (pm) =    500
Error in the integrated total number of electrons before renormalization (e) =    1.0137E-03
Charge convergence tolerance =    1.0000E-05
Minimum radius for electron cloud penetration fitting (pm) =    200
Minimum decay exponent for electron density of buried atom tails =   1.7500
Maximum decay exponent for electron density of buried atom tails =  2.5000
Number of iterations to convergence =      7
 
The following XYZ coordinates are in angstroms. The atomic dipoles and quadrupoles are in atomic units.
atom number, atomic symbol, x, y, z, net_charge, dipole_x, dipole_y, dipole_z, dipole_mag, Qxy, Qxz, Qyz,Q(x^2-y^2), Q(3z^2 - R^2), three eigenvalues of traceless quadrupole moment tensor
    1 C      5.783311     7.738576     7.849130    -0.135296     0.067858    -0.031471     0.014937     0.076277    -0.022356    -0.019907     0.073729    -0.012826     0.083736    -0.066327    -0.027318     0.093645
    2 H      5.670476     8.727629     7.358429     0.127631    -0.003774     0.046144    -0.012234     0.047888    -0.013983    -0.000057     0.001423    -0.014803    -0.002177    -0.015490    -0.000786     0.016276
    3 H      4.795817     7.422555     8.250678     0.107635    -0.038492    -0.005612     0.024147     0.045785     0.004141    -0.009221     0.000842     0.017886    -0.006565    -0.010460    -0.004987     0.015447
    4 C      6.826598     7.826717     8.967839    -0.200791    -0.064853     0.057281     0.007478     0.086850     0.018215     0.040297     0.010069     0.007857     0.106751    -0.043031    -0.018900     0.061931
    5 H      6.936171     6.852685     9.499360     0.086494    -0.000473    -0.026298     0.030722     0.040443     0.000519     0.001346    -0.010426    -0.017738     0.005461    -0.010238    -0.005526     0.015764
    6 H      7.819062     8.098792     8.549916     0.112866     0.036217     0.022248    -0.008392     0.043325     0.000106    -0.002484     0.003489     0.025765    -0.008870    -0.012692    -0.002024     0.014716
    7 C      6.425631     8.915965     9.993011    -0.108036     0.098451    -0.044726     0.023072     0.110568     0.012114     0.006264     0.026685    -0.021774     0.084603    -0.031094    -0.014252     0.045346
    8 H      6.280999     9.877336     9.451857     0.108488     0.004839     0.041346    -0.021636     0.046916    -0.005966     0.007475    -0.001634    -0.023971    -0.001971    -0.016199     0.001672     0.014527
    9 H      5.443605     8.652268    10.453118     0.083798    -0.028475    -0.012993     0.024525     0.039764     0.004732    -0.004988     0.003490     0.008854     0.008025    -0.010050     0.002079     0.007971
   10 C      7.484933     9.113534    11.090808    -0.395186    -0.067117    -0.015074    -0.076061     0.102553     0.005178     0.020764     0.009804    -0.001075     0.024783    -0.020146    -0.007281     0.027427
   11 H      8.440671     9.476153    10.652623     0.135201     0.022856     0.012041    -0.019028     0.032085     0.007350    -0.001220    -0.000442     0.018746    -0.002722    -0.011457    -0.001033     0.012490
   12 H      7.147669     9.872139    11.831338     0.132791    -0.014473     0.023360     0.014514     0.031077    -0.006642     0.001600     0.008306    -0.000915    -0.000750    -0.011342     0.001260     0.010082
   13 H      7.691653     8.168486    11.644297     0.118352     0.000631    -0.025052     0.010393     0.027129     0.002150     0.007897    -0.006442    -0.006871    -0.002406    -0.012128     0.002829     0.009298
   14 N      6.077998     6.755196     6.695603     0.208000    -0.003458    -0.001667    -0.017814     0.018223    -0.020488     0.016443     0.002886     0.025610    -0.025699    -0.027022    -0.005720     0.032742
   15 C      6.343755     5.321128     7.202818    -0.124196     0.070836     0.048292    -0.030587     0.091024    -0.011308    -0.006291    -0.043148    -0.105528    -0.076820    -0.051719    -0.031577     0.083296
   16 C      7.848039     5.083919     7.026847    -0.191518    -0.047902     0.054015    -0.054968     0.090740     0.000975    -0.025197    -0.018043     0.026525    -0.077727    -0.042549     0.004454     0.038095
   17 C      8.159627     5.861138     5.732140    -0.183317    -0.050799     0.028111     0.070936     0.091666    -0.005669    -0.012203    -0.029584    -0.048462    -0.017496    -0.035700    -0.008853     0.044553
   18 C      7.352873     7.153687     5.896034    -0.124588    -0.006783    -0.081605     0.024052     0.085346     0.013469    -0.073031    -0.041352     0.089819    -0.027212    -0.080039    -0.027054     0.107092
   19 H      5.969635     5.232182     8.241103     0.122157    -0.010802    -0.009265     0.047862     0.049933    -0.005270    -0.013965    -0.010778    -0.009997     0.037145    -0.022123     0.000486     0.021637
   20 H      5.756076     4.635891     6.558721     0.115518    -0.016596    -0.034813    -0.026314     0.046688     0.007834     0.008162     0.006477    -0.019622    -0.028387    -0.015728    -0.004294     0.020022
   21 H      8.081510     4.000001     6.961182     0.129591     0.009123    -0.041563    -0.007841     0.043269    -0.004086    -0.005092     0.001045    -0.014535    -0.028276    -0.012176    -0.001121     0.013297
   22 H      8.417204     5.504859     7.883278     0.118695     0.025126     0.021355     0.027322     0.042823     0.009433     0.010184     0.001572     0.014220     0.012331    -0.014537    -0.002725     0.017262
   23 H      7.826156     5.284076     4.839670     0.103769    -0.011446    -0.020576    -0.030916     0.038861     0.000935     0.003513     0.004033    -0.018100     0.033444    -0.015103     0.001762     0.013341
   24 H      9.239079     6.085588     5.604598     0.142877     0.042011     0.015036     0.000962     0.044631     0.004785    -0.000103    -0.004612     0.012915    -0.026519    -0.011375    -0.001199     0.012574
   25 H      7.039438     7.630578     4.948535     0.130786    -0.003894     0.019422    -0.045719     0.049825    -0.003135    -0.002661    -0.008297     0.024006     0.050942    -0.022748     0.003760     0.018988
   26 H      7.906728     7.914923     6.479044     0.123978     0.028227     0.026383     0.017256     0.042315     0.004228    -0.003437     0.006362     0.009496    -0.005167    -0.011041     0.003647     0.007394
   27 H      4.000001     6.378640     6.316835     0.154404    -0.034302    -0.008233     0.012730     0.037502     0.006446     0.000329    -0.008776     0.028475     0.001242    -0.019587     0.003983     0.015605
   28 C      4.880644     6.774382     5.771149    -0.362686     0.035548     0.008741     0.031528     0.048312    -0.011506     0.094592     0.007582     0.164608     0.060047    -0.096220    -0.048162     0.144382
   29 H      4.703324     7.821948     5.451030     0.179989    -0.015185     0.034471    -0.013560     0.040034    -0.007529     0.012765    -0.001712     0.008642    -0.009437    -0.013176    -0.004295     0.017471
   30 H      5.097733     6.134116     4.892180     0.156172     0.002436    -0.014000    -0.034873     0.037657    -0.005926     0.006131     0.011695     0.014431     0.030674    -0.020112     0.004009     0.016104
   31 S      6.398841    10.605783     5.111648     1.219200    -0.022706     0.053845     0.001026     0.058445    -0.006273    -0.005196    -0.021249    -0.045665     0.070512    -0.036667    -0.002766     0.039432
   32 O      7.242309    10.120814     4.000001    -0.539481     0.079211    -0.023142    -0.103426     0.132314    -0.032287    -0.060691     0.030696     0.020124     0.042335    -0.052893    -0.035364     0.088257
   33 O      5.018583    10.084033     5.248392    -0.544645    -0.097547    -0.010868     0.017229     0.099651     0.045915    -0.006520    -0.005015     0.084705    -0.116226    -0.043930    -0.038433     0.082363
   34 N      7.062702    10.553538     6.586750    -0.701874    -0.009534     0.018087     0.025300     0.032529     0.005572     0.037277    -0.019170     0.111123     0.006618    -0.064821    -0.009153     0.073974
   35 S      8.670923    10.804647     6.813168     1.236908    -0.018136     0.009140     0.060368     0.063693     0.004505    -0.023609     0.045198     0.055350     0.125056    -0.069645     0.002389     0.067255
   36 O      9.374199     9.527450     7.092989    -0.544012     0.058560    -0.084972     0.014396     0.104195    -0.050937     0.003777    -0.008844    -0.077583    -0.083544    -0.050116    -0.028699     0.078814
   37 O      9.308768    11.817166     5.964650    -0.504784     0.058483     0.090496    -0.083086     0.136063     0.037241    -0.033291    -0.040815    -0.049969     0.060808    -0.057120    -0.022883     0.080003
   38 F      6.194374    12.216273     4.810840    -0.244519    -0.001142     0.028774    -0.004746     0.029185    -0.012605    -0.000370    -0.022266    -0.133979    -0.129397    -0.049067    -0.044256     0.093323
   39 F      8.530857    11.488722     8.320367    -0.250372    -0.012728     0.008938     0.018859     0.024445    -0.000398    -0.014421     0.054188    -0.020714     0.212360    -0.053900    -0.042555     0.096455
 
The sperically averaged electron density of each atom fit to a function of the form exp(a - br) for r >=rmin_cloud_penetration
atom number,atomic symbol, x, y, z, a, b, Rsquared where a and b are in atomic units and Rsquared is the squared correlation coefficient
    1 C      5.783311     7.738576     7.849130    -0.153258     1.890341     0.999660
    2 H      5.670476     8.727629     7.358429    -1.180842     2.056701     0.999243
    3 H      4.795817     7.422555     8.250678    -1.794039     2.027452     0.999665
    4 C      6.826598     7.826717     8.967839    -0.329965     1.843425     0.999978
    5 H      6.936171     6.852685     9.499360    -2.040109     1.963188     0.999860
    6 H      7.819062     8.098792     8.549916    -2.011803     1.891531     0.999411
    7 C      6.425631     8.915965     9.993011    -0.471060     1.870755     0.999493
    8 H      6.280999     9.877336     9.451857    -2.042384     1.952443     0.999187
    9 H      5.443605     8.652268    10.453118    -2.645579     1.919499     0.997649
   10 C      7.484933     9.113534    11.090808    -0.441465     1.868246     0.999638
   11 H      8.440671     9.476153    10.652623    -2.097850     1.981347     0.998721
   12 H      7.147669     9.872139    11.831338    -2.316618     2.031902     0.996698
   13 H      7.691653     8.168486    11.644297    -2.149349     2.025546     0.997341
   14 N      6.077998     6.755196     6.695603     0.201762     2.157901     0.996448
   15 C      6.343755     5.321128     7.202818     0.466313     2.066950     0.999592
   16 C      7.848039     5.083919     7.026847     0.001821     1.992426     0.999641
   17 C      8.159627     5.861138     5.732140    -0.310478     1.935550     0.999613
   18 C      7.352873     7.153687     5.896034    -0.479039     1.832470     0.999785
   19 H      5.969635     5.232182     8.241103    -2.145470     2.015146     0.999515
   20 H      5.756076     4.635891     6.558721    -1.253417     2.186558     0.999708
   21 H      8.081510     4.000001     6.961182    -2.106449     2.114319     0.997786
   22 H      8.417204     5.504859     7.883278    -2.112613     2.013947     0.999135
   23 H      7.826156     5.284076     4.839670    -1.993106     2.076047     0.998951
   24 H      9.239079     6.085588     5.604598    -2.505759     2.016052     0.999440
   25 H      7.039438     7.630578     4.948535    -1.308121     2.080636     0.998052
   26 H      7.906728     7.914923     6.479044    -1.190252     2.046728     0.997793
   27 H      4.000001     6.378640     6.316835    -2.149526     2.098288     0.996349
   28 C      4.880644     6.774382     5.771149    -0.323447     1.909017     0.999867
   29 H      4.703324     7.821948     5.451030    -1.613959     2.108276     0.999710
   30 H      5.097733     6.134116     4.892180    -2.268707     2.041471     0.999281
   31 S      6.398841    10.605783     5.111648     1.416389     2.163903     0.999789
   32 O      7.242309    10.120814     4.000001    -0.612483     1.948056     0.999810
   33 O      5.018583    10.084033     5.248392    -0.709440     1.928169     0.999670
   34 N      7.062702    10.553538     6.586750    -0.217484     1.848783     0.999643
   35 S      8.670923    10.804647     6.813168     1.407665     2.161313     0.999881
   36 O      9.374199     9.527450     7.092989    -0.800479     1.897674     0.999915
   37 O      9.308768    11.817166     5.964650    -0.185041     2.030748     0.999838
   38 F      6.194374    12.216273     4.810840     0.325825     2.328912     0.999188
   39 F      8.530857    11.488722     8.320367     0.120613     2.283204     0.999958
 
 2018/11/18  03:13:16
