39
Coordinates from ORCA-job Pyr14FSI
  C   -0.48579887424095      1.29878111069537      1.37223542402116
  H   -0.59863406780910      2.28783443787994      0.88153431182772
  H   -1.47329325112771      0.98276095673041      1.77378313047727
  C   0.55748742915797      1.38692272178605      2.49094446893157
  H   0.66706055609808      0.41289056813431      3.02246490206570
  H   1.54995174813024      1.65899749884868      2.07302175754458
  C   0.15652013373743      2.47617056715580      3.51611605645762
  H   0.01188853212361      3.43754101481165      2.97496228006797
  H   -0.82550506171661      2.21247299020404      3.97622296014547
  C   1.21582283353335      2.67373934912257      4.61391310959940
  H   2.17156041808862      3.03635758709494      4.17572825988492
  H   0.87855858469921      3.43234451458759      5.35444305128429
  H   1.42254304202687      1.72869126520161      5.16740252434671
  N   -0.19111197698703      0.31540160574247      0.21870867255924
  C   0.07464514361476     -1.11866650654955      0.72592337446940
  C   1.57892851952182     -1.35587554698214      0.54995233457911
  C   1.89051667761835     -0.57865716260673     -0.74475453233023
  C   1.08376240551554      0.71389297888943     -0.58086000719260
  H   -0.29947539568207     -1.20761213250998      1.76420878669500
  H   -0.51303367813516     -1.80390336128734      0.08182685551872
  H   1.81239980592846     -2.43979416461393      0.48428710675690
  H   2.14809378988525     -0.93493579972951      1.40638366534707
  H   1.55704619557238     -1.15571875347144     -1.63722464150644
  H   2.96996804740142     -0.35420703849335     -0.87229581598662
  H   0.77032786901896      1.19078279420950     -1.52835884789889
  H   1.63761759946288      1.47512867464254      0.00214911593639
  H   -2.26910974652282     -0.06115441658095     -0.16005923186447
  C   -1.38846666964640      0.33458737206446     -0.70574558361696
  H   -1.56578600818862      1.38215292930849     -1.02586384610277
  H   -1.17137739789941     -0.30567902380884     -1.58471447064534
  S   0.12973132429887      4.16598800003851     -1.36524619494137
  O   0.97319910500201      3.68101940107598     -2.47689393762203
  O   -1.25052755753916      3.64423854854288     -1.22850289580803
  N   0.79359149336553      4.11374304313124      0.10985583138760
  S   2.40181229331744      4.36485269775048      0.33627363849856
  O   3.10508842311829      3.08765518435455      0.61609453888917
  O   3.03965738718118      5.37737088214268     -0.51224443635724
  F   -0.07473662542266      5.77647803534364     -1.66605402240339
  F   2.26174695349918      5.04892717714387      1.84347230698483
