   26
jmolscript: load "" {1 1 1} spacegroup "x,y,z" unitcell [{     17.728496     0.000000     0.000000 }, {      0.000000    12.032060     0.000000 }, {      0.000000     0.000000    12.000538 }]
H      4.000001     5.522773     5.212863     0.127338
C      5.006894     5.946900     5.084624    -0.400982
C      5.996114     5.362934     6.107656    -0.113660
H      5.340519     5.734368     4.057723     0.134745
H      4.931007     7.040650     5.194002     0.121045
C      7.416923     5.916062     5.912333    -0.203136
H      6.024005     4.264681     6.011683     0.094688
H      5.643925     5.583717     7.131277     0.080101
C      8.378261     5.416478     7.000285    -0.094068
H      7.387376     7.019146     5.933729     0.089082
H      7.826498     5.605190     4.938047     0.121346
N      9.755407     5.878391     6.757598     0.043265
H      8.410263     4.319815     6.996324     0.118761
H      8.067596     5.754984     8.000542     0.100164
C     10.760479     5.074751     6.342026     0.089386
C     10.159434     7.205763     6.621313    -0.115870
N     11.831300     5.855061     6.058913     0.085225
H     10.778393     4.000001     6.429456     0.143589
C     11.451141     7.189659     6.180702    -0.122014
H      9.501213     8.031989     6.855597     0.149737
C     13.016752     5.346353     5.366753    -0.318622
H     12.132888     8.000109     5.956266     0.149001
H     13.728420     6.168348     5.233383     0.148749
H     13.485429     4.554932     5.964985     0.149005
H     12.686262     4.936263     4.399416     0.160677
Cl    10.057172     4.026908     4.000001    -0.737551
 
 Chargemol version 3.5 September 26, 2017.
See ddec.sourceforge.net for latest version.
 
Computational parameters:
Number of radial integration shells =    100
Cutoff radius (pm) =    500
Error in the integrated total number of electrons before renormalization (e) =    9.0812E-04
Charge convergence tolerance =    1.0000E-05
Minimum radius for electron cloud penetration fitting (pm) =    200
Minimum decay exponent for electron density of buried atom tails =   1.7500
Maximum decay exponent for electron density of buried atom tails =  2.5000
Number of iterations to convergence =      7
 
The following XYZ coordinates are in angstroms. The atomic dipoles and quadrupoles are in atomic units.
atom number, atomic symbol, x, y, z, net_charge, dipole_x, dipole_y, dipole_z, dipole_mag, Qxy, Qxz, Qyz,Q(x^2-y^2), Q(3z^2 - R^2), three eigenvalues of traceless quadrupole moment tensor
    1 H      4.000001     5.522773     5.212863     0.127338    -0.022560    -0.015916     0.009348     0.029149     0.005768     0.000075    -0.006529     0.009635    -0.011313    -0.010873     0.000841     0.010032
    2 C      5.006894     5.946900     5.084624    -0.400982     0.072888    -0.038782     0.067257     0.106491    -0.009483     0.010512    -0.001072     0.021700    -0.019120    -0.013279    -0.008110     0.021388
    3 C      5.996114     5.362934     6.107656    -0.113660     0.006041     0.070960    -0.087903     0.113131    -0.008625     0.017066     0.021335     0.059784    -0.041477    -0.044044     0.001953     0.042092
    4 H      5.340519     5.734368     4.057723     0.134745     0.017512    -0.010979    -0.021870     0.030092    -0.007161    -0.002869     0.002073     0.003941     0.020567    -0.010856     0.001612     0.009243
    5 H      4.931007     7.040650     5.194002     0.121045     0.002768     0.024912     0.009121     0.026673    -0.003623     0.006097     0.002467    -0.014793    -0.002926    -0.011702     0.002834     0.008868
    6 C      7.416923     5.916062     5.912333    -0.203136    -0.032214    -0.047684     0.051276     0.077076    -0.018127     0.044005     0.000862     0.053832    -0.046761    -0.045184    -0.017920     0.063105
    7 H      6.024005     4.264681     6.011683     0.094688     0.002878    -0.036532    -0.018729     0.041154     0.000215     0.004158     0.003984    -0.006841    -0.026483    -0.011070     0.002151     0.008919
    8 H      5.643925     5.583717     7.131277     0.080101    -0.016086     0.018643     0.028788     0.037883    -0.002156    -0.003025     0.004812     0.013436     0.011083    -0.010305     0.001592     0.008713
    9 C      8.378261     5.416478     7.000285    -0.094068     0.021313     0.050245    -0.074621     0.092450     0.025382    -0.010417     0.013036     0.058961    -0.098743    -0.044548    -0.011131     0.055679
   10 H      7.387376     7.019146     5.933729     0.089082    -0.009437     0.033084     0.002445     0.034490    -0.001945     0.003088     0.002145    -0.015234    -0.017556    -0.008845    -0.002131     0.010976
   11 H      7.826498     5.605190     4.938047     0.121346     0.013112    -0.020203    -0.034575     0.042137     0.000082     0.001601     0.002710     0.009562     0.023441    -0.009125     0.000548     0.008577
   12 N      9.755407     5.878391     6.757598     0.043265    -0.045136     0.015545    -0.042816     0.064126     0.017169    -0.029788     0.009496     0.025001    -0.186882    -0.072150     0.015225     0.056925
   13 H      8.410263     4.319815     6.996324     0.118761    -0.002093    -0.048174    -0.009959     0.049237    -0.000256     0.002756    -0.008153    -0.016064    -0.038611    -0.015597    -0.001170     0.016767
   14 H      8.067596     5.754984     8.000542     0.100164    -0.015286     0.020031     0.039065     0.046486    -0.000502    -0.000107     0.007561     0.003665     0.032961    -0.010074    -0.003635     0.013709
   15 C     10.760479     5.074751     6.342026     0.089386    -0.019470     0.038590    -0.067874     0.080469    -0.003729     0.001879     0.017695     0.012435     0.039408    -0.022545     0.000435     0.022109
   16 C     10.159434     7.205763     6.621313    -0.115870    -0.027286    -0.051639    -0.007166     0.058842     0.014808    -0.027222     0.005088    -0.070843    -0.203772    -0.078305     0.005950     0.072355
   17 N     11.831300     5.855061     6.058913     0.085225     0.024534    -0.000051    -0.078248     0.082004    -0.017709    -0.053440     0.021079     0.009410    -0.193700    -0.088871     0.015470     0.073401
   18 H     10.778393     4.000001     6.429456     0.143589    -0.000198    -0.073821    -0.004706     0.073971    -0.005546    -0.008236    -0.018332    -0.024099    -0.061331    -0.030491     0.001245     0.029246
   19 C     11.451141     7.189659     6.180702    -0.122014     0.011049    -0.046471    -0.023016     0.053022    -0.004241    -0.030864     0.014274    -0.080853    -0.184587    -0.076755     0.003314     0.073441
   20 H      9.501213     8.031989     6.855597     0.149737    -0.035080     0.049770     0.012156     0.062091    -0.008171    -0.018492     0.003120    -0.023322    -0.089953    -0.038218     0.007566     0.030652
   21 C     13.016752     5.346353     5.366753    -0.318622    -0.075434     0.023678     0.031685     0.085176    -0.036453    -0.065287     0.006559     0.063796    -0.127165    -0.077448    -0.020441     0.097890
   22 H     12.132888     8.000109     5.956266     0.149001     0.033732     0.049526    -0.013202     0.061360     0.009436    -0.013870    -0.002401    -0.020080    -0.092566    -0.035564     0.005395     0.030169
   23 H     13.728420     6.168348     5.233383     0.148749     0.022006     0.025088    -0.007808     0.034273     0.005341    -0.011382     0.002848     0.003314    -0.033244    -0.017665     0.003638     0.014027
   24 H     13.485429     4.554932     5.964985     0.149005     0.011536    -0.028502     0.016796     0.035036    -0.010213    -0.005198    -0.009318    -0.000621     0.007877    -0.016963     0.005721     0.011241
   25 H     12.686262     4.936263     4.399416     0.160677    -0.013075    -0.013021    -0.032422     0.037305    -0.008989    -0.008405     0.006537     0.014224     0.022511    -0.015484    -0.002610     0.018095
   26 Cl    10.057172     4.026908     4.000001    -0.737551    -0.050064    -0.012087    -0.088448     0.102350     0.026646     0.052763     0.125792     0.071809     0.230696    -0.145562    -0.022878     0.168440
 
The sperically averaged electron density of each atom fit to a function of the form exp(a - br) for r >=rmin_cloud_penetration
atom number,atomic symbol, x, y, z, a, b, Rsquared where a and b are in atomic units and Rsquared is the squared correlation coefficient
    1 H      4.000001     5.522773     5.212863    -2.036117     2.080809     0.995665
    2 C      5.006894     5.946900     5.084624    -0.619683     1.842530     0.998585
    3 C      5.996114     5.362934     6.107656    -0.672610     1.839957     0.998688
    4 H      5.340519     5.734368     4.057723    -3.099652     1.805666     0.997632
    5 H      4.931007     7.040650     5.194002    -2.255139     1.997578     0.996027
    6 C      7.416923     5.916062     5.912333    -0.727224     1.766900     0.999953
    7 H      6.024005     4.264681     6.011683    -2.721877     1.837022     0.999529
    8 H      5.643925     5.583717     7.131277    -2.223026     1.976748     0.997989
    9 C      8.378261     5.416478     7.000285    -0.703116     1.828914     0.999411
   10 H      7.387376     7.019146     5.933729    -2.728629     1.820668     0.999448
   11 H      7.826498     5.605190     4.938047    -2.847534     1.701770     0.999953
   12 N      9.755407     5.878391     6.757598    -0.313317     2.012214     0.997692
   13 H      8.410263     4.319815     6.996324    -1.741888     1.990247     0.999600
   14 H      8.067596     5.754984     8.000542    -2.418705     1.945729     0.998488
   15 C     10.760479     5.074751     6.342026    -0.463628     1.901722     0.999637
   16 C     10.159434     7.205763     6.621313    -0.372786     1.896422     0.999288
   17 N     11.831300     5.855061     6.058913    -0.244247     2.039594     0.997759
   18 H     10.778393     4.000001     6.429456    -1.674202     1.984549     0.998790
   19 C     11.451141     7.189659     6.180702    -0.467824     1.884863     0.999383
   20 H      9.501213     8.031989     6.855597    -2.807435     1.869856     0.996991
   21 C     13.016752     5.346353     5.366753    -0.972728     1.787763     0.999284
   22 H     12.132888     8.000109     5.956266    -3.176864     1.805611     0.993567
   23 H     13.728420     6.168348     5.233383    -3.042268     1.932817     0.993795
   24 H     13.485429     4.554932     5.964985    -3.092182     1.894208     0.996191
   25 H     12.686262     4.936263     4.399416    -2.836151     1.771528     0.999653
   26 Cl    10.057172     4.026908     4.000001     1.146190     1.901401     0.997388
 
 2018/11/17  19:29:48
