   39
jmolscript: load "" {1 1 1} spacegroup "x,y,z" unitcell [{     14.171959     0.000000     0.000000 }, {      0.000000    17.383092     0.000000 }, {      0.000000     0.000000    15.026534 }]
C      8.352081     7.962960     8.120864    -0.128192
H      8.067833     8.861938     8.705466     0.126487
H      9.415833     7.732402     8.346474     0.110803
C      8.163776     8.212735     6.619454    -0.205707
H      8.374590     7.291348     6.028716     0.090287
H      7.117290     8.517750     6.400829     0.111428
C      9.114810     9.338414     6.140831    -0.107224
H      8.939354    10.256662     6.746315     0.106987
H     10.171898     9.034506     6.330745     0.085505
C      8.933470     9.673521     4.650800    -0.392604
H      7.898904    10.026238     4.441683     0.136002
H      9.631315    10.483580     4.345193     0.137498
H      9.132195     8.790701     4.000001     0.117404
N      7.553088     6.805432     8.754598     0.204731
C      7.794756     5.457646     8.031327    -0.123829
C      6.467995     5.097351     7.349722    -0.190988
C      5.416670     5.683964     8.313623    -0.186815
C      6.019417     7.041719     8.685488    -0.123683
H      8.660113     5.564827     7.349049     0.123944
H      8.057382     4.715647     8.812144     0.118003
H      6.374712     4.000001     7.203799     0.132283
H      6.392454     5.579838     6.351664     0.119283
H      5.293158     5.033699     9.208920     0.106412
H      4.416668     5.809018     7.848072     0.142753
H      5.693408     7.463640     9.654753     0.135045
H      5.820600     7.801723     7.904876     0.121823
H      9.052878     6.443873    10.247632     0.156523
C      7.974580     6.700519    10.206519    -0.362805
H      7.776403     7.673253    10.705814     0.170277
H      7.378876     5.900551    10.690727     0.158357
B      5.863492    11.570340     9.141178     0.153211
C      6.321300    10.528647    10.289909     0.115993
C      5.250908    10.645532     7.967042     0.108340
N      4.903153     9.883524     7.140307    -0.365883
N      6.697733     9.691671    11.026484    -0.377835
C      4.793621    12.618959     9.692332     0.083541
C      7.189258    12.273425     8.567501     0.083361
N      4.000001    13.383075    10.101032    -0.343928
N      8.187854    12.705489     8.121299    -0.346785
 
 Chargemol version 3.5 September 26, 2017.
See ddec.sourceforge.net for latest version.
 
Computational parameters:
Number of radial integration shells =    100
Cutoff radius (pm) =    500
Error in the integrated total number of electrons before renormalization (e) =    1.1793E-03
Charge convergence tolerance =    1.0000E-05
Minimum radius for electron cloud penetration fitting (pm) =    200
Minimum decay exponent for electron density of buried atom tails =   1.7500
Maximum decay exponent for electron density of buried atom tails =  2.5000
Number of iterations to convergence =      7
 
The following XYZ coordinates are in angstroms. The atomic dipoles and quadrupoles are in atomic units.
atom number, atomic symbol, x, y, z, net_charge, dipole_x, dipole_y, dipole_z, dipole_mag, Qxy, Qxz, Qyz,Q(x^2-y^2), Q(3z^2 - R^2), three eigenvalues of traceless quadrupole moment tensor
    1 C      8.352081     7.962960     8.120864    -0.128192    -0.044420    -0.027473    -0.053440     0.074725     0.055286    -0.020996    -0.041136    -0.021976    -0.056894    -0.052747    -0.032731     0.085478
    2 H      8.067833     8.861938     8.705466     0.126487    -0.011218     0.043425     0.017191     0.048032     0.002392    -0.000395     0.004484    -0.014180    -0.006946    -0.006718    -0.003454     0.010172
    3 H      9.415833     7.732402     8.346474     0.110803     0.046398    -0.002570     0.002535     0.046538    -0.001313     0.004861    -0.002168     0.021226    -0.024404    -0.010127    -0.005679     0.015806
    4 C      8.163776     8.212735     6.619454    -0.205707     0.056509     0.051968     0.035001     0.084374    -0.007461    -0.011263    -0.026388    -0.029325     0.168177    -0.047763    -0.017830     0.065593
    5 H      8.374590     7.291348     6.028716     0.090287     0.016411    -0.022918    -0.028149     0.039836    -0.005213    -0.005418     0.008887    -0.012728     0.006075    -0.009986    -0.005220     0.015206
    6 H      7.117290     8.517750     6.400829     0.111428    -0.032854     0.024276    -0.013088     0.042895     0.000083     0.005997    -0.002951     0.012174     0.000508    -0.007826    -0.002072     0.009898
    7 C      9.114810     9.338414     6.140831    -0.107224    -0.065662    -0.032461    -0.084150     0.111564     0.012802    -0.023279    -0.032184    -0.007587     0.002454    -0.033306    -0.013753     0.047059
    8 H      8.939354    10.256662     6.746315     0.106987    -0.013214     0.040678     0.013901     0.044973     0.002237    -0.003168     0.001145    -0.013295     0.005600    -0.008962     0.002774     0.006188
    9 H     10.171898     9.034506     6.330745     0.085505     0.038376    -0.011352    -0.004796     0.040306    -0.000998    -0.001288    -0.005510     0.013652    -0.014616    -0.010281     0.000881     0.009400
   10 C      8.933470     9.673521     4.650800    -0.392604     0.006479    -0.021942     0.102611     0.105131    -0.001498    -0.003564    -0.009031    -0.015947     0.067594    -0.019886    -0.005685     0.025571
   11 H      7.898904    10.026238     4.441683     0.136002    -0.028926     0.011937     0.003349     0.031471    -0.008540     0.001231    -0.002087     0.014197     0.005395    -0.012140     0.001478     0.010662
   12 H      9.631315    10.483580     4.345193     0.137498     0.020337     0.024708     0.000420     0.032004     0.011006     0.001528    -0.002368    -0.003812     0.001145    -0.011951     0.000905     0.011046
   13 H      9.132195     8.790701     4.000001     0.117404     0.007228    -0.023675    -0.011375     0.027242    -0.006705    -0.000220     0.004031    -0.013456     0.021281    -0.013137     0.002719     0.010419
   14 N      7.553088     6.805432     8.754598     0.204731    -0.007934    -0.005653     0.016439     0.019108     0.017084     0.016130     0.007717    -0.002936     0.051925    -0.027016    -0.003551     0.030567
   15 C      7.794756     5.457646     8.031327    -0.123829    -0.082744     0.038833    -0.007322     0.091696    -0.024859    -0.017041     0.052451    -0.075878    -0.084848    -0.054923    -0.031159     0.086083
   16 C      6.467995     5.097351     7.349722    -0.190988     0.004314     0.049175     0.076395     0.090956    -0.006190     0.009175     0.018649     0.046043    -0.090957    -0.042371     0.002658     0.039712
   17 C      5.416670     5.683964     8.313623    -0.186815     0.076497     0.035786    -0.031494     0.090135    -0.009733    -0.013839     0.029015    -0.022270    -0.061231    -0.037150    -0.004435     0.041585
   18 C      6.019417     7.041719     8.685488    -0.123683     0.029127    -0.077602    -0.017564     0.084729    -0.019853    -0.002364     0.025757     0.144475    -0.155570    -0.075773    -0.025297     0.101069
   19 H      8.660113     5.564827     7.349049     0.123944     0.036238    -0.001273    -0.034826     0.050276     0.002387    -0.018068     0.010552     0.012251    -0.015322    -0.022879     0.001047     0.021832
   20 H      8.057382     4.715647     8.812144     0.118003     0.005863    -0.038139     0.027478     0.047371    -0.007677     0.006171    -0.007635    -0.026751    -0.007289    -0.015690    -0.004566     0.020255
   21 H      6.374712     4.000001     7.203799     0.132283    -0.006505    -0.043102    -0.001508     0.043616     0.002335     0.000683     0.003115    -0.013411    -0.035404    -0.012206    -0.001197     0.013404
   22 H      6.392454     5.579838     6.351664     0.119283    -0.008826     0.022202    -0.035274     0.042604    -0.006119     0.004070    -0.007591     0.006289     0.035891    -0.013728    -0.002491     0.016219
   23 H      5.293158     5.033699     9.208920     0.106412    -0.004965    -0.024299     0.030499     0.039310     0.000660    -0.009690    -0.005994    -0.014767     0.017567    -0.015054     0.001161     0.013893
   24 H      4.416668     5.809018     7.848072     0.142753    -0.037081     0.009899    -0.022848     0.044666    -0.004755     0.008243     0.002797     0.011334    -0.009883    -0.011115    -0.001225     0.012339
   25 H      5.693408     7.463640     9.654753     0.135045    -0.023941     0.017217     0.041815     0.051168    -0.004336    -0.010540     0.007117     0.030518     0.021363    -0.020733    -0.000992     0.021725
   26 H      5.820600     7.801723     7.904876     0.121823    -0.015507     0.024638    -0.029923     0.041748     0.002700     0.002983    -0.005184     0.006641    -0.008358    -0.008760     0.002845     0.005915
   27 H      9.052878     6.443873    10.247632     0.156523     0.036541    -0.004292     0.010232     0.038189    -0.007484     0.005238     0.001281     0.029652     0.018668    -0.019957     0.004042     0.015915
   28 C      7.974580     6.700519    10.206519    -0.362805    -0.012950     0.012653    -0.041263     0.045060     0.014607     0.059057    -0.022487     0.059238     0.402801    -0.106315    -0.047479     0.153794
   29 H      7.776403     7.673253    10.705814     0.170277    -0.000305     0.027239     0.024148     0.036403     0.003591     0.010097    -0.001959    -0.002997     0.042291    -0.014279    -0.003679     0.017958
   30 H      7.378876     5.900551    10.690727     0.158357    -0.019661    -0.019288     0.025532     0.037556     0.011504     0.000656    -0.009032     0.001152     0.037028    -0.019305     0.002622     0.016683
   31 B      5.863492    11.570340     9.141178     0.153211    -0.004570     0.013274     0.001564     0.014126     0.009042     0.011607    -0.006066    -0.004985     0.039466    -0.020883     0.002553     0.018329
   32 C      6.321300    10.528647    10.289909     0.115993    -0.018453     0.048679     0.003136     0.052154     0.050745    -0.038523     0.096846     0.087591    -0.047059    -0.143829     0.066822     0.077007
   33 C      5.250908    10.645532     7.967042     0.108340    -0.004581     0.047304     0.017302     0.050577    -0.041859    -0.049801    -0.096611     0.062797    -0.104481    -0.143557     0.069534     0.074023
   34 N      4.903153     9.883524     7.140307    -0.365883     0.001278     0.058604     0.030957     0.066290    -0.054746    -0.062257    -0.124540     0.073762    -0.154097    -0.185169     0.089983     0.095185
   35 N      6.697733     9.691671    11.026484    -0.377835    -0.017589     0.058784    -0.004527     0.061526     0.042383    -0.049586     0.112439     0.089570    -0.095670    -0.161842     0.076305     0.085537
   36 C      4.793621    12.618959     9.692332     0.083541     0.036484    -0.028197    -0.019917     0.050228     0.091298     0.049027    -0.048070    -0.002174     0.138397    -0.139735     0.068219     0.071516
   37 C      7.189258    12.273425     8.567501     0.083361    -0.048594     0.002871     0.021477     0.053207    -0.064992     0.067783     0.029793    -0.110131     0.140401    -0.138206     0.061659     0.076547
   38 N      4.000001    13.383075    10.101032    -0.343928     0.044031    -0.039581    -0.023384     0.063656     0.126248     0.067728    -0.065286    -0.007378     0.185566    -0.192078     0.095296     0.096782
   39 N      8.187854    12.705489     8.121299    -0.346785    -0.057191    -0.006094     0.024857     0.062656    -0.090385     0.088245     0.041378    -0.153479     0.180759    -0.187098     0.088421     0.098676
 
The sperically averaged electron density of each atom fit to a function of the form exp(a - br) for r >=rmin_cloud_penetration
atom number,atomic symbol, x, y, z, a, b, Rsquared where a and b are in atomic units and Rsquared is the squared correlation coefficient
    1 C      8.352081     7.962960     8.120864    -0.417196     1.847146     0.999947
    2 H      8.067833     8.861938     8.705466    -2.597187     1.767719     0.999989
    3 H      9.415833     7.732402     8.346474    -1.864637     2.013132     0.999905
    4 C      8.163776     8.212735     6.619454    -0.484412     1.817336     0.999989
    5 H      8.374590     7.291348     6.028716    -2.002093     1.966707     0.999859
    6 H      7.117290     8.517750     6.400829    -1.940225     1.901747     0.999322
    7 C      9.114810     9.338414     6.140831    -0.636289     1.834658     0.999807
    8 H      8.939354    10.256662     6.746315    -2.147489     1.892998     0.999442
    9 H     10.171898     9.034506     6.330745    -2.505824     1.941928     0.998996
   10 C      8.933470     9.673521     4.650800    -0.567080     1.851562     0.999392
   11 H      7.898904    10.026238     4.441683    -2.374169     1.942640     0.999302
   12 H      9.631315    10.483580     4.345193    -2.605767     1.964448     0.997555
   13 H      9.132195     8.790701     4.000001    -1.936790     2.071644     0.996878
   14 N      7.553088     6.805432     8.754598     0.210908     2.163612     0.996126
   15 C      7.794756     5.457646     8.031327     0.477245     2.072899     0.999583
   16 C      6.467995     5.097351     7.349722    -0.008541     1.994016     0.999624
   17 C      5.416670     5.683964     8.313623    -0.375110     1.924805     0.999341
   18 C      6.019417     7.041719     8.685488    -0.389787     1.852680     0.999571
   19 H      8.660113     5.564827     7.349049    -2.154496     2.016859     0.999732
   20 H      8.057382     4.715647     8.812144    -1.271694     2.193108     0.999796
   21 H      6.374712     4.000001     7.203799    -2.113745     2.120101     0.997195
   22 H      6.392454     5.579838     6.351664    -2.279893     1.985210     0.998938
   23 H      5.293158     5.033699     9.208920    -1.913645     2.098495     0.998148
   24 H      4.416668     5.809018     7.848072    -2.743032     1.964520     0.998973
   25 H      5.693408     7.463640     9.654753    -1.870462     1.980586     0.999371
   26 H      5.820600     7.801723     7.904876    -1.503541     1.987639     0.999120
   27 H      9.052878     6.443873    10.247632    -2.585620     2.013363     0.995772
   28 C      7.974580     6.700519    10.206519    -0.327176     1.898117     0.999936
   29 H      7.776403     7.673253    10.705814    -1.250618     2.156362     0.999597
   30 H      7.378876     5.900551    10.690727    -2.039641     2.080612     0.999733
   31 B      5.863492    11.570340     9.141178    -0.997028     1.737391     0.999984
   32 C      6.321300    10.528647    10.289909    -0.030813     1.979329     0.999736
   33 C      5.250908    10.645532     7.967042    -0.392307     1.905549     0.999906
   34 N      4.903153     9.883524     7.140307    -0.830653     1.852046     0.998563
   35 N      6.697733     9.691671    11.026484    -0.479344     1.929249     0.999010
   36 C      4.793621    12.618959     9.692332    -0.023554     1.972980     0.997770
   37 C      7.189258    12.273425     8.567501    -0.394746     1.901104     0.999799
   38 N      4.000001    13.383075    10.101032    -0.173704     1.956834     0.999674
   39 N      8.187854    12.705489     8.121299    -0.633167     1.882169     0.998238
 
 2018/11/18  03:02:07
