33
Coordinates from ORCA-job TEPABr
  C   -0.08911099930780      1.73584305714820      2.26879023732781
  H   0.02598814884657      2.80039306955872      1.97859041507096
  H   -1.06355789815105      1.64669795883095      2.79261867125681
  C   1.04896779423421      1.34404678232090      3.22466575785598
  H   0.99237091464620      0.26433891337182      3.48680205612043
  H   2.03486444971199      1.50700476819150      2.73931513507100
  C   0.98015193133557      2.18190171628815      4.51747422315215
  H   1.07284117685126      3.27157791533705      4.30620188251776
  H   0.02089571711542      2.02220791862626      5.06106916175326
  H   1.80723161499683      1.90171637365805      5.20603725560797
  N   -0.24698698935259      0.96034858559763      0.96303950808963
  C   -0.47863554681715     -0.54773995426581      1.19112587347339
  H   0.43943619560762     -0.92875753623002      1.67571580955506
  C   2.16213292340787      0.19528779992610      0.17030650696643
  C   0.97035054771910      1.14323076619426      0.01421656091207
  C   -1.70799268786904     -0.93927800385101      2.01231767510670
  H   -0.54586273957848     -0.96668587816208      0.15067927225408
  H   2.95385655219295      0.58234517254377     -0.50933642979875
  H   2.60004346065032      0.13552082570951      1.18874215975903
  H   0.54953083593110      0.95753784827941     -1.00608320370725
  H   1.27369521773942      2.20428963065296      0.13079723576537
  H   -2.33235473535515      1.42391979405055      0.93821851562013
  C   -1.49370513733859      1.51263100164581      0.21930610211843
  C   -1.40099561610689      2.94198101442011     -0.31779215497389
  H   -1.63473907388366      0.79610917782454     -0.63425954284196
  Br  -0.77009877824140     -0.79145454211577     -2.33410965792601
  H   1.90714886195036     -0.82089649438563     -0.19517720406859
  H   -2.66396678750979     -0.68217214086538      1.50972553614088
  H   -1.71880172036774     -0.53158049008592      3.04747571943547
  H   -1.68945952862383     -2.04816135890968      2.10073616267453
  H   -2.39484831058193      3.17608507548456     -0.75973847638592
  H   -0.66141848175358      3.03980023443540     -1.14005406923369
  H   -1.19970131209813      3.71789099877511      0.45400330533074
