24
Coordinates from ORCA-job EMImBF4
  C   -1.88694838270259      0.70130660920508      2.05551360823492
  C   -0.86803211809527     -0.17109607397725      2.76616518417893
  N   0.48263338424269      0.39710692063951      2.66362508709540
  H   -0.82162304030983     -1.15082441755547      2.30310318254752
  H   -1.09550500205930     -0.28991212262067      3.82342412681554
  C   1.46280162661360     -0.10864989685347      1.91879072221457
  C   0.90343723582536      1.60162018751540      3.18692839782129
  N   2.49935606451059      0.72469493089354      1.95328841017240
  H   1.40968037697914     -1.00018914871332      1.32309337048978
  C   2.17020215383693      1.80618126952955      2.73962824710633
  H   0.27663401432216      2.20102797171207      3.81669544118966
  C   3.71029709332999      0.57460691801978      1.15065062516220
  H   2.85140889104205      2.61743744996492      2.90462670488860
  H   4.57039379726387      0.46031339467620      1.80315472119787
  H   3.58243708965092     -0.29044096221260      0.51140996378208
  H   3.81880394704604      1.45207876289739      0.52266333821193
  B   0.80400066239114     -0.41179920136167     -1.03547079128157
  F   -0.29921560279249     -0.84025572690014     -0.25166525938030
  F   1.10934786289658      0.91738031816807     -0.65983868231725
  F   1.91805802400968     -1.22646269554030     -0.66905384605530
  F   0.54215522434989     -0.51278682021856     -2.37591048399404
  H   -1.62496218108134      0.78856013477613      1.00559937623061
  H   -1.94374650658498      1.69161618921663      2.50303103246257
  H   -2.86809461468482      0.23887600873918      2.13404752322627
