20
Coordinates from ORCA-job EMImI
  C   -1.65488444816134     -0.22196210520803      0.03883522540231
  C   -0.70751976496930      0.45133424435858      1.01615035280951
  N   0.65126172308912      0.54216284032581      0.47600914333216
  H   -0.62757731734509     -0.14165625121964      1.92255584772478
  H   -1.03953891332942      1.45296631980366      1.28281516122355
  C   1.70883201549081     -0.07237502276231      1.01776010107829
  C   1.01382995139084      1.01721730496719     -0.76858715267982
  N   2.76558483101075      0.11018752005307      0.21495322419822
  H   1.74748098390566     -0.47956913339104      2.00530893105775
  C   2.33082886845037      0.73918130600424     -0.93444116172677
  H   0.31754325187896      1.50619856238746     -1.41946139397170
  C   4.01914328565745     -0.60822306987303      0.37433963483118
  H   2.99135476080251      0.93896153288217     -1.75464350607029
  H   4.39735157652173     -0.46403420039292      1.38105580035497
  H   3.81889143835745     -1.66630352353552      0.20417799542456
  H   4.73667279057322     -0.22160256536274     -0.34047369159024
  I   1.12677724198391     -2.99535130316136      0.57131063480107
  H   -1.77903115248834      0.36581574838297     -0.86833101370552
  H   -2.63174490128489     -0.32822877272933      0.50516727851205
  H   -1.27193622153439     -1.20743943152923     -0.21334141100604
