   28
jmolscript: load "" {1 1 1} spacegroup "x,y,z" unitcell [{     15.559911     0.000000     0.000000 }, {      0.000000    12.914025     0.000000 }, {      0.000000     0.000000    15.783249 }]
C      5.001484     7.344760    10.129288    -0.434990
C      5.990653     6.355687    10.711468    -0.063575
N      7.392161     6.772749    10.502725     0.102347
H      5.897833     5.384027    10.235745     0.124954
H      5.844402     6.236360    11.783282     0.111693
C      8.407727     5.928421    10.313870     0.005790
C      7.891130     8.056702    10.527257    -0.100284
N      9.536925     6.629647    10.227156     0.152600
H      8.311368     4.865355    10.199299     0.152727
C      9.235247     7.966112    10.345358    -0.104771
H      7.260401     8.914020    10.644897     0.162550
C     10.854601     6.081018     9.924131    -0.346751
H      9.985074     8.726511    10.254743     0.166719
H     11.559982     6.404580    10.682566     0.161278
H     10.786903     4.999181     9.926410     0.167777
H     11.151123     6.428487     8.940174     0.173414
B      7.342042     5.855790     6.452268     0.144500
C      7.084432     4.744447     7.565982     0.120298
C      8.662900     6.632318     6.886513     0.113825
N      9.603954     7.191334     7.267941    -0.375515
N      6.943129     4.000001     8.443866    -0.385436
C      7.520299     5.192763     5.034399     0.089702
C      6.134006     6.880738     6.494860     0.094568
N      7.665699     4.692736     4.000001    -0.344039
N      5.269423     7.643926     6.608915    -0.350830
H      5.167684     7.502509     9.067533     0.158291
H      5.033407     8.302251    10.644819     0.135124
H      4.000001     6.941584    10.256436     0.168032
 
 Chargemol version 3.5 September 26, 2017.
See ddec.sourceforge.net for latest version.
 
Computational parameters:
Number of radial integration shells =    100
Cutoff radius (pm) =    500
Error in the integrated total number of electrons before renormalization (e) =    7.5034E-04
Charge convergence tolerance =    1.0000E-05
Minimum radius for electron cloud penetration fitting (pm) =    200
Minimum decay exponent for electron density of buried atom tails =   1.7500
Maximum decay exponent for electron density of buried atom tails =  2.5000
Number of iterations to convergence =      7
 
The following XYZ coordinates are in angstroms. The atomic dipoles and quadrupoles are in atomic units.
atom number, atomic symbol, x, y, z, net_charge, dipole_x, dipole_y, dipole_z, dipole_mag, Qxy, Qxz, Qyz,Q(x^2-y^2), Q(3z^2 - R^2), three eigenvalues of traceless quadrupole moment tensor
    1 C      5.001484     7.344760    10.129288    -0.434990     0.051439    -0.057957     0.026274     0.081825    -0.041443     0.036762    -0.016709    -0.021009    -0.088435    -0.054297    -0.016430     0.070728
    2 C      5.990653     6.355687    10.711468    -0.063575    -0.012773     0.096619    -0.055015     0.111915     0.027636    -0.006179    -0.001718     0.085617    -0.101503    -0.034277    -0.033996     0.068274
    3 N      7.392161     6.772749    10.502725     0.102347    -0.030031     0.017022    -0.002799     0.034633     0.003400    -0.008635     0.001970     0.040869    -0.206681    -0.069551     0.013816     0.055735
    4 H      5.897833     5.384027    10.235745     0.124954    -0.016826    -0.038354    -0.027224     0.049953     0.008455     0.004248     0.001377     0.003501    -0.035627    -0.012769    -0.002447     0.015215
    5 H      5.844402     6.236360    11.783282     0.111693    -0.014242     0.000905     0.045948     0.048113     0.000931    -0.000208    -0.003215     0.011968     0.035341    -0.012367     0.000149     0.012218
    6 C      8.407727     5.928421    10.313870     0.005790    -0.005483     0.035888    -0.011775     0.038166    -0.001066    -0.008728     0.001042    -0.001517     0.042326    -0.010959    -0.006276     0.017235
    7 C      7.891130     8.056702    10.527257    -0.100284    -0.019018    -0.031666    -0.020398     0.042196     0.026284    -0.010414    -0.011441    -0.063666    -0.138745    -0.049179    -0.017048     0.066228
    8 N      9.536925     6.629647    10.227156     0.152600     0.053375     0.000621    -0.035526     0.064119    -0.020114    -0.023598     0.011652     0.035936    -0.226712    -0.080348     0.010824     0.069524
    9 H      8.311368     4.865355    10.199299     0.152727    -0.005640    -0.065736    -0.007465     0.066398    -0.005828    -0.008684    -0.007547    -0.026396    -0.060159    -0.025476     0.000275     0.025201
   10 C      9.235247     7.966112    10.345358    -0.104771     0.009917    -0.024508    -0.031620     0.041217    -0.014652    -0.010515    -0.004312    -0.060307    -0.173704    -0.060190    -0.002314     0.062504
   11 H      7.260401     8.914020    10.644897     0.162550    -0.028047     0.051901     0.001677     0.059018    -0.006448    -0.005421     0.002224    -0.027304    -0.080773    -0.027999    -0.000767     0.028765
   12 C     10.854601     6.081018     9.924131    -0.346751    -0.059893     0.027922     0.006005     0.066354    -0.052409    -0.026864     0.027345     0.081748    -0.197613    -0.077031    -0.029973     0.107004
   13 H      9.985074     8.726511    10.254743     0.166719     0.039954     0.047237    -0.011129     0.062861     0.010288    -0.006335    -0.000248    -0.009196    -0.098103    -0.033613     0.005769     0.027844
   14 H     11.559982     6.404580    10.682566     0.161278     0.023657     0.010435     0.022175     0.034063    -0.002699     0.004891     0.010528     0.017378     0.007209    -0.016884     0.005599     0.011285
   15 H     10.786903     4.999181     9.926410     0.167777     0.000501    -0.035626    -0.005456     0.036045    -0.001403    -0.005163     0.001798    -0.009566    -0.047593    -0.017242     0.004088     0.013153
   16 H     11.151123     6.428487     8.940174     0.173414     0.013269     0.009366    -0.033674     0.037387    -0.003221    -0.014493    -0.000195     0.013029    -0.000833    -0.012492    -0.005833     0.018325
   17 B      7.342042     5.855790     6.452268     0.144500    -0.001990    -0.000775    -0.013138     0.013310     0.008353    -0.000634    -0.014094    -0.001199    -0.042562    -0.021456     0.002075     0.019380
   18 C      7.084432     4.744447     7.565982     0.120298    -0.010758     0.000817    -0.054714     0.055767    -0.020728     0.016133     0.104869     0.090602    -0.160238    -0.145351     0.066829     0.078521
   19 C      8.662900     6.632318     6.886513     0.113825    -0.027933    -0.009005    -0.045531     0.054170    -0.083781    -0.052479    -0.036954    -0.096168     0.142699    -0.141965     0.065291     0.076673
   20 N      9.603954     7.191334     7.267941    -0.375515    -0.044121    -0.018108    -0.047266     0.067146    -0.111852    -0.059419    -0.050875    -0.108032     0.240185    -0.186723     0.079020     0.107703
   21 N      6.943129     4.000001     8.443866    -0.385436    -0.008762     0.008434    -0.073603     0.074601    -0.025944     0.028381     0.140606     0.115830    -0.176378    -0.190397     0.092613     0.097784
   22 C      7.520299     5.192763     5.034399     0.089702    -0.008779     0.026315     0.044443     0.052390     0.012586     0.021383    -0.080579     0.033799    -0.299066    -0.140676     0.068008     0.072667
   23 C      6.134006     6.880738     6.494860     0.094568     0.033587    -0.032266    -0.031334     0.056134     0.105118     0.008457    -0.015416    -0.028285     0.194746    -0.139856     0.062874     0.076982
   24 N      7.665699     4.692736     4.000001    -0.344039    -0.008959     0.031687     0.061420     0.069690     0.016796     0.032806    -0.115467     0.051466    -0.421772    -0.200587     0.099304     0.101283
   25 N      5.269423     7.643926     6.608915    -0.350830     0.046242    -0.041923    -0.027991     0.068406     0.141498     0.010704    -0.015421    -0.034338     0.303971    -0.194323     0.090260     0.104063
   26 H      5.167684     7.502509     9.067533     0.158291     0.001298     0.001551    -0.028101     0.028173    -0.007450    -0.000484    -0.002585    -0.004333     0.002728    -0.008616     0.000837     0.007780
   27 H      5.033407     8.302251    10.644819     0.135124    -0.003259     0.023670     0.011125     0.026356    -0.007177     0.006683     0.005121    -0.020592    -0.004676    -0.016146     0.002182     0.013964
   28 H      4.000001     6.941584    10.256436     0.168032    -0.024492    -0.013792    -0.001224     0.028135     0.002644     0.002641    -0.004955     0.007435    -0.029404    -0.012268     0.002742     0.009526
 
The sperically averaged electron density of each atom fit to a function of the form exp(a - br) for r >=rmin_cloud_penetration
atom number,atomic symbol, x, y, z, a, b, Rsquared where a and b are in atomic units and Rsquared is the squared correlation coefficient
    1 C      5.001484     7.344760    10.129288    -0.456625     1.866369     0.999928
    2 C      5.990653     6.355687    10.711468    -0.354953     1.934328     0.999837
    3 N      7.392161     6.772749    10.502725     0.237746     2.141449     0.999633
    4 H      5.897833     5.384027    10.235745    -1.530072     2.067011     0.999664
    5 H      5.844402     6.236360    11.783282    -2.429308     2.016747     0.998886
    6 C      8.407727     5.928421    10.313870     0.139208     2.037328     0.997889
    7 C      7.891130     8.056702    10.527257    -0.145027     1.970122     0.999836
    8 N      9.536925     6.629647    10.227156     0.700955     2.261401     0.999111
    9 H      8.311368     4.865355    10.199299    -1.448616     2.075996     0.999615
   10 C      9.235247     7.966112    10.345358     0.119379     2.028724     0.999747
   11 H      7.260401     8.914020    10.644897    -2.306447     1.996781     0.999046
   12 C     10.854601     6.081018     9.924131    -0.442811     1.915377     0.999682
   13 H      9.985074     8.726511    10.254743    -2.214758     2.017249     0.997556
   14 H     11.559982     6.404580    10.682566    -2.505104     2.078368     0.995323
   15 H     10.786903     4.999181     9.926410    -2.755617     1.990270     0.996205
   16 H     11.151123     6.428487     8.940174    -1.547027     2.147598     0.997467
   17 B      7.342042     5.855790     6.452268    -1.013741     1.737306     0.999983
   18 C      7.084432     4.744447     7.565982    -0.159320     1.955837     0.999527
   19 C      8.662900     6.632318     6.886513    -0.246587     1.936164     0.999842
   20 N      9.603954     7.191334     7.267941    -0.648322     1.879840     0.999123
   21 N      6.943129     4.000001     8.443866    -0.555583     1.912534     0.999026
   22 C      7.520299     5.192763     5.034399    -0.254630     1.936908     0.999200
   23 C      6.134006     6.880738     6.494860    -0.367953     1.911674     0.999701
   24 N      7.665699     4.692736     4.000001    -0.349441     1.927408     0.999339
   25 N      5.269423     7.643926     6.608915    -0.631849     1.890471     0.998394
   26 H      5.167684     7.502509     9.067533    -1.220614     2.098001     0.998850
   27 H      5.033407     8.302251    10.644819    -2.419190     2.021242     0.997669
   28 H      4.000001     6.941584    10.256436    -3.046922     1.948931     0.996869
 
 2018/11/17  13:20:02
