30

  C   -0.02517170662388     -0.09047601973086      0.01605283873945
  N   0.00899061929386      0.00317946960189      1.38873648061417
  C   1.28117268807226      0.03435562184419      1.77983139952666
  N   2.06183170999533     -0.06220901503262      0.70710378032458
  C   1.26391052672551     -0.13212710135221     -0.41248369869618
  C   -1.13989000463039      0.22698395049008      2.26020440539773
  C   3.52319105323857      0.07557079042879      0.73069847993865
  C   3.97821151083758      1.36670483124176      0.06634206004005
  C   5.43809389615226      1.66051703620021      0.39048250042544
  C   5.88593511671734      3.00306303025694     -0.17288054492139
  H   1.61990403298531      0.19968082582525      2.78343069962239
  H   1.67262433469347     -0.19806152163224     -1.40091202608998
  H   -0.94870673825119     -0.11447357102660     -0.52772717128501
  H   -1.98420386374034     -0.33168918534188      1.87086233268268
  H   -0.89749621345245     -0.11812061228253      3.25762723222721
  H   -1.35131477167755      1.28940114332415      2.30127591872205
  H   3.95182246239100     -0.80507102953199      0.25524503400712
  H   3.80675444350782      0.08210085787047      1.77825695018073
  H   3.84005881986571      1.29959554227940     -1.01488417298660
  H   3.35051563998719      2.17374358600571      0.43342717265244
  H   5.55496832375853      1.66909643830946      1.47487230590283
  H   6.07739158875903      0.86173299695088      0.00671725966690
  H   6.92923485608244      3.20123173440336      0.06429125874494
  H   5.77720133144175      3.03246029426025     -1.25667809951599
  H   5.28626995410634      3.80868088583014      0.24685764946036
  F   1.24257529293566      2.79059700248013      1.29891553280539
  B   1.62181700269920      2.91749162907189      2.66058270700147
  F   2.86191946912710      2.24358871154232      2.82809942558227
  F   0.65471465599602      2.23210969259119      3.43889279933435
  F   1.71955396900652      4.23541098612246      3.02798848989530
