   30
jmolscript: load "" {1 1 1} spacegroup "x,y,z" unitcell [{     16.913512     0.000000     0.000000 }, {      0.000000    13.040519     0.000000 }, {      0.000000     0.000000    12.839804 }]
C      5.959033     4.714595     5.416965    -0.115560
N      5.993195     4.808251     6.789649     0.148607
C      7.265377     4.839427     7.180744     0.031276
N      8.046036     4.742862     6.108016     0.103404
C      7.248115     4.672944     4.988429    -0.103611
C      4.844314     5.032055     7.661117    -0.342534
C      9.507396     4.880642     6.131611    -0.113888
C      9.962416     6.171776     5.467255    -0.209742
C     11.422298     6.465589     5.791395    -0.112939
C     11.870140     7.808135     5.228032    -0.406958
H      7.604108     5.004752     8.184343     0.156673
H      7.656829     4.607010     4.000001     0.155801
H      5.035497     4.690598     4.873185     0.156925
H      4.000001     4.473382     7.271775     0.150158
H      5.086708     4.686951     8.658540     0.169865
H      4.632890     6.094472     7.702189     0.178278
H      9.936027     4.000001     5.656158     0.106960
H      9.790959     4.887172     7.179169     0.125995
H      9.824263     6.104667     4.386028     0.090902
H      9.334720     6.978815     5.834340     0.128685
H     11.539173     6.474168     6.875785     0.099923
H     12.061596     5.666805     5.407629     0.079668
H     12.913440     8.006304     5.465203     0.127659
H     11.761406     7.837532     4.144234     0.122545
H     11.270475     8.613753     5.647770     0.142355
F      7.226779     7.595668     6.699828    -0.473391
B      7.606021     7.722563     8.061495     1.010408
F      8.846124     7.048660     8.229012    -0.469327
F      6.638919     7.037181     8.839805    -0.481330
F      7.703758     9.040483     8.428901    -0.456808
 
 Chargemol version 3.5 September 26, 2017.
See ddec.sourceforge.net for latest version.
 
Computational parameters:
Number of radial integration shells =    100
Cutoff radius (pm) =    500
Error in the integrated total number of electrons before renormalization (e) =    8.2065E-04
Charge convergence tolerance =    1.0000E-05
Minimum radius for electron cloud penetration fitting (pm) =    200
Minimum decay exponent for electron density of buried atom tails =   1.7500
Maximum decay exponent for electron density of buried atom tails =  2.5000
Number of iterations to convergence =      7
 
The following XYZ coordinates are in angstroms. The atomic dipoles and quadrupoles are in atomic units.
atom number, atomic symbol, x, y, z, net_charge, dipole_x, dipole_y, dipole_z, dipole_mag, Qxy, Qxz, Qyz,Q(x^2-y^2), Q(3z^2 - R^2), three eigenvalues of traceless quadrupole moment tensor
    1 C      5.959033     4.714595     5.416965    -0.115560    -0.000737     0.030975     0.031317     0.044054    -0.009817     0.004835     0.006659     0.050701     0.173783    -0.056632    -0.001983     0.058616
    2 N      5.993195     4.808251     6.789649     0.148607    -0.051496     0.043323     0.014804     0.068905    -0.008492    -0.029166     0.014245     0.112745     0.101029    -0.075278     0.007571     0.067707
    3 C      7.265377     4.839427     7.180744     0.031276    -0.010675     0.038349    -0.036922     0.054295    -0.000683    -0.005084     0.004819    -0.028588    -0.029892    -0.015015    -0.005112     0.020126
    4 N      8.046036     4.742862     6.108016     0.103404     0.025822     0.038916    -0.024551     0.052764     0.011062     0.000944     0.006424     0.108484     0.030750    -0.061040     0.010743     0.050297
    5 C      7.248115     4.672944     4.988429    -0.103611     0.027728     0.028831     0.026359     0.047905     0.000055     0.028807     0.003054     0.063312     0.118633    -0.051546    -0.006186     0.057732
    6 C      4.844314     5.032055     7.661117    -0.342534     0.060965     0.002221    -0.038648     0.072218    -0.003469    -0.066660     0.018708     0.110231     0.067405    -0.071487    -0.030507     0.101994
    7 C      9.507396     4.880642     6.131611    -0.113888    -0.039583     0.067735    -0.040090     0.088103     0.014115     0.000954     0.015828     0.097131    -0.079623    -0.048394    -0.015566     0.063960
    8 C      9.962416     6.171776     5.467255    -0.209742     0.057894    -0.034752     0.041501     0.079258     0.043855    -0.018588    -0.018234    -0.037883    -0.040790    -0.042351    -0.020699     0.063050
    9 C     11.422298     6.465589     5.791395    -0.112939    -0.050047     0.086348    -0.059164     0.116021     0.033575    -0.017857     0.015904     0.011366    -0.045573    -0.045209     0.003328     0.041881
   10 C     11.870140     7.808135     5.228032    -0.406958    -0.039564    -0.093736     0.040411     0.109475     0.015250    -0.004935    -0.003950     0.000331    -0.008400    -0.013896    -0.004611     0.018507
   11 H      7.604108     5.004752     8.184343     0.156673     0.021562     0.016072     0.065680     0.070972    -0.004126     0.010374    -0.008387     0.025152     0.081010    -0.027625    -0.004289     0.031914
   12 H      7.656829     4.607010     4.000001     0.155801     0.019487    -0.000905    -0.057314     0.060543    -0.004374    -0.003066     0.004792     0.038402     0.081798    -0.033649     0.005484     0.028164
   13 H      5.035497     4.690598     4.873185     0.156925    -0.047712     0.003105    -0.034097     0.058726    -0.000794     0.011188     0.003571     0.048188     0.046175    -0.032116     0.004961     0.027155
   14 H      4.000001     4.473382     7.271775     0.150158    -0.027526    -0.016937    -0.010100     0.033861     0.007226    -0.003366     0.010489     0.016053    -0.010026    -0.017613     0.005105     0.012508
   15 H      5.086708     4.686951     8.658540     0.169865     0.008892    -0.004170     0.036045     0.037359    -0.008485    -0.000756    -0.004756     0.013742     0.036891    -0.017778     0.004556     0.013222
   16 H      4.632890     6.094472     7.702189     0.178278    -0.002757     0.040650     0.004547     0.040997    -0.006812    -0.012264    -0.002373    -0.017392    -0.014732    -0.019294     0.005531     0.013763
   17 H      9.936027     4.000001     5.656158     0.106960     0.021387    -0.032751    -0.025660     0.046781    -0.002107    -0.004952     0.008040    -0.010330    -0.019365    -0.011504    -0.001479     0.012982
   18 H      9.790959     4.887172     7.179169     0.125995     0.014839     0.011011     0.045534     0.049141     0.001851     0.006381    -0.008347     0.008628     0.046832    -0.015537    -0.003814     0.019351
   19 H      9.824263     6.104667     4.386028     0.090902     0.005176     0.000333    -0.034057     0.034450     0.002733     0.000039     0.001611    -0.001708     0.031534    -0.008166    -0.002524     0.010690
   20 H      9.334720     6.978815     5.834340     0.128685    -0.017243     0.032993     0.020582     0.042538    -0.003878    -0.002362     0.001856    -0.012234    -0.028294    -0.010106    -0.002131     0.012236
   21 H     11.539173     6.474168     6.875785     0.099923    -0.003609     0.016172     0.039145     0.042508     0.007979     0.002221     0.002083     0.001187     0.030800    -0.013135     0.001776     0.011359
   22 H     12.061596     5.666805     5.407629     0.079668     0.020533    -0.018885    -0.023580     0.036528     0.000482    -0.005865     0.004773     0.002258    -0.020383    -0.010894     0.003372     0.007522
   23 H     12.913440     8.006304     5.465203     0.127659     0.024653    -0.002612     0.011335     0.027260     0.001863     0.005717    -0.004509     0.008644    -0.016493    -0.010403     0.001120     0.009283
   24 H     11.761406     7.837532     4.144234     0.122545    -0.005612    -0.007013    -0.022838     0.024541     0.003124     0.000345    -0.000548    -0.011671     0.022807    -0.010432     0.002777     0.007656
   25 H     11.270475     8.613753     5.647770     0.142355    -0.021447     0.012139     0.018185     0.030627    -0.004423    -0.008907     0.001943    -0.004384    -0.004372    -0.010615     0.000352     0.010263
   26 F      7.226779     7.595668     6.699828    -0.473391    -0.007225     0.006747    -0.035687     0.037031     0.004742     0.002148     0.013553    -0.005948     0.063384    -0.017059    -0.009805     0.026864
   27 B      7.606021     7.722563     8.061495     1.010408     0.000241     0.004871     0.002261     0.005375    -0.002452    -0.003537    -0.005175     0.030215     0.025519    -0.020587     0.007142     0.013445
   28 F      8.846124     7.048660     8.229012    -0.469327     0.038904     0.000258    -0.001207     0.038923    -0.021639    -0.013124     0.005578     0.017006    -0.035414    -0.019471    -0.014015     0.033486
   29 F      6.638919     7.037181     8.839805    -0.481330    -0.024579     0.002349     0.026129     0.035949     0.022348    -0.009518    -0.006523    -0.002589    -0.025764    -0.018888    -0.011099     0.029986
   30 F      7.703758     9.040483     8.428901    -0.456808     0.001371     0.049903     0.015130     0.052165     0.004205     0.000712     0.012587    -0.048891    -0.041982    -0.017974    -0.017067     0.035041
 
The sperically averaged electron density of each atom fit to a function of the form exp(a - br) for r >=rmin_cloud_penetration
atom number,atomic symbol, x, y, z, a, b, Rsquared where a and b are in atomic units and Rsquared is the squared correlation coefficient
    1 C      5.959033     4.714595     5.416965     0.225904     2.047713     0.999860
    2 N      5.993195     4.808251     6.789649     0.808578     2.274784     0.999564
    3 C      7.265377     4.839427     7.180744     0.354944     2.075739     0.998609
    4 N      8.046036     4.742862     6.108016     0.400565     2.174837     0.999241
    5 C      7.248115     4.672944     4.988429     0.209118     2.034035     0.999968
    6 C      4.844314     5.032055     7.661117    -0.578095     1.888076     0.999435
    7 C      9.507396     4.880642     6.131611    -0.345652     1.902491     0.999770
    8 C      9.962416     6.171776     5.467255    -0.343052     1.846228     0.999948
    9 C     11.422298     6.465589     5.791395    -0.482927     1.878722     0.998889
   10 C     11.870140     7.808135     5.228032    -0.581966     1.850751     0.999071
   11 H      7.604108     5.004752     8.184343    -1.611974     2.036779     0.999316
   12 H      7.656829     4.607010     4.000001    -2.169792     2.018988     0.999104
   13 H      5.035497     4.690598     4.873185    -2.330500     1.997349     0.999338
   14 H      4.000001     4.473382     7.271775    -2.220395     2.120181     0.996358
   15 H      5.086708     4.686951     8.658540    -2.161484     2.081897     0.998655
   16 H      4.632890     6.094472     7.702189    -2.420407     1.970580     0.998457
   17 H      9.936027     4.000001     5.656158    -2.336088     1.969571     0.999476
   18 H      9.790959     4.887172     7.179169    -2.005478     1.974297     0.999114
   19 H      9.824263     6.104667     4.386028    -2.124863     1.964799     0.999681
   20 H      9.334720     6.978815     5.834340    -1.522892     1.989929     0.998571
   21 H     11.539173     6.474168     6.875785    -2.370187     1.919546     0.998730
   22 H     12.061596     5.666805     5.407629    -2.264799     1.977425     0.998453
   23 H     12.913440     8.006304     5.465203    -2.239666     2.047477     0.995389
   24 H     11.761406     7.837532     4.144234    -2.100528     2.035942     0.996272
   25 H     11.270475     8.613753     5.647770    -2.652424     1.902870     0.998887
   26 F      7.226779     7.595668     6.699828    -0.301841     2.088070     0.999846
   27 B      7.606021     7.722563     8.061495    -0.504796     1.929106     0.997931
   28 F      8.846124     7.048660     8.229012     0.069318     2.173194     0.999033
   29 F      6.638919     7.037181     8.839805     0.469856     2.258653     0.999316
   30 F      7.703758     9.040483     8.428901    -0.143097     2.121598     0.999878
 
 2018/11/17  19:30:30
