   31
jmolscript: load "" {1 1 1} spacegroup "x,y,z" unitcell [{     13.103157     0.000000     0.000000 }, {      0.000000    13.432474     0.000000 }, {      0.000000     0.000000    16.892091 }]
C      6.109102     7.806159     8.598922    -0.132824
H      6.187802     8.875548     8.305879     0.104850
H      5.096878     7.658170     9.034626     0.103835
C      7.176228     7.475885     9.651022    -0.192299
H      7.113286     6.406176     9.948452     0.102621
H      8.195592     7.641634     9.238875     0.103595
C      6.996451     8.356431    10.909834    -0.113616
H      7.052677     9.432463    10.620556     0.092383
H      5.971567     8.203517    11.324577     0.090434
C      8.038850     8.063941    12.002426    -0.395502
H      9.074947     8.247690    11.637105     0.127719
H      7.876599     8.710919    12.892160     0.136317
H      7.985637     7.004820    12.342132     0.126391
N      6.101205     7.027926     7.284570     0.208570
C      5.965661     5.504949     7.470710    -0.118900
C      7.391540     4.926068     7.532036    -0.178311
C      8.327088     6.009808     6.916152    -0.177339
C      7.407770     7.164423     6.481675    -0.119864
H      5.327743     5.317478     8.359578     0.107490
H      5.480520     5.150090     6.529296     0.128592
H      7.410367     4.000001     6.921983     0.127830
H      7.701629     4.665489     8.565674     0.089618
H      8.840296     5.620482     6.012988     0.128872
H      9.103189     6.333861     7.641206     0.088730
H      7.101091     6.993314     5.420518     0.128292
H      7.809503     8.188235     6.636545     0.107931
H      4.000001     7.382830     7.025133     0.148028
C      4.938182     7.547634     6.455901    -0.356023
H      5.090183     8.632047     6.277675     0.148231
H      4.936462     6.973217     5.491741     0.164691
Br     5.935568     5.226647     4.000001    -0.780342
 
 Chargemol version 3.5 September 26, 2017.
See ddec.sourceforge.net for latest version.
 
Computational parameters:
Number of radial integration shells =    100
Cutoff radius (pm) =    500
Error in the integrated total number of electrons before renormalization (e) =    6.5923E-04
Charge convergence tolerance =    1.0000E-05
Minimum radius for electron cloud penetration fitting (pm) =    200
Minimum decay exponent for electron density of buried atom tails =   1.7500
Maximum decay exponent for electron density of buried atom tails =  2.5000
Number of iterations to convergence =      7
 
The following XYZ coordinates are in angstroms. The atomic dipoles and quadrupoles are in atomic units.
atom number, atomic symbol, x, y, z, net_charge, dipole_x, dipole_y, dipole_z, dipole_mag, Qxy, Qxz, Qyz,Q(x^2-y^2), Q(3z^2 - R^2), three eigenvalues of traceless quadrupole moment tensor
    1 C      6.109102     7.806159     8.598922    -0.132824     0.064585    -0.055858     0.002931     0.085439    -0.007445    -0.001123     0.049010    -0.027565     0.114295    -0.041108    -0.029143     0.070252
    2 H      6.187802     8.875548     8.305879     0.104850     0.008994     0.045411    -0.005397     0.046607     0.002174     0.000949    -0.003610    -0.029191    -0.017806    -0.012047    -0.006193     0.018240
    3 H      5.096878     7.658170     9.034626     0.103835    -0.037718    -0.006997     0.025700     0.046174     0.002607    -0.010283     0.000957     0.022435    -0.004808    -0.011516    -0.006148     0.017664
    4 C      7.176228     7.475885     9.651022    -0.192299    -0.052456     0.053810     0.013421     0.076337     0.013127     0.034072     0.002618     0.016368     0.115497    -0.038798    -0.017880     0.056678
    5 H      7.113286     6.406176     9.948452     0.102621    -0.007155    -0.033230     0.018421     0.038662     0.003617    -0.001135    -0.007147    -0.017096    -0.000464    -0.009220    -0.004038     0.013258
    6 H      8.195592     7.641634     9.238875     0.103595     0.034855     0.015061    -0.009263     0.039083     0.007614    -0.004412    -0.000449     0.014897    -0.010870    -0.009195    -0.004322     0.013517
    7 C      6.996451     8.356431    10.909834    -0.113616     0.085336    -0.067140     0.013753     0.109449     0.021346     0.011782     0.012453    -0.004842     0.108737    -0.039609    -0.003945     0.043554
    8 H      7.052677     9.432463    10.620556     0.092383     0.014583     0.038355    -0.007453     0.041705     0.004192     0.002376    -0.000902    -0.017917     0.004877    -0.011197     0.002100     0.009097
    9 H      5.971567     8.203517    11.324577     0.090434    -0.031394    -0.014391     0.022805     0.041386     0.004951    -0.004114     0.001874     0.013042     0.012439    -0.010922     0.002159     0.008762
   10 C      8.038850     8.063941    12.002426    -0.395502    -0.067024     0.016564    -0.073249     0.100658     0.001259     0.021602    -0.005236     0.016190     0.040563    -0.019219    -0.010915     0.030135
   11 H      9.074947     8.247690    11.637105     0.127719     0.024024     0.008088    -0.013580     0.028758     0.003042    -0.000352    -0.006824     0.018989    -0.000156    -0.013333     0.003094     0.010239
   12 H      7.876599     8.710919    12.892160     0.136317    -0.009481     0.020602     0.021379     0.031167    -0.006779     0.001866     0.007854    -0.001579     0.014250    -0.012028     0.001523     0.010505
   13 H      7.985637     7.004820    12.342132     0.126391    -0.006779    -0.026886     0.006256     0.028425     0.003435     0.006836    -0.007308    -0.008002    -0.012629    -0.013182     0.003288     0.009894
   14 N      6.101205     7.027926     7.284570     0.208570    -0.004646    -0.008399    -0.021404     0.023458    -0.026474     0.020169     0.007130     0.017001     0.011549    -0.037669     0.005505     0.032164
   15 C      5.965661     5.504949     7.470710    -0.118900     0.086664     0.026366    -0.006100     0.090791     0.019343    -0.030432    -0.035522    -0.129305    -0.183838    -0.083315    -0.024314     0.107630
   16 C      7.391540     4.926068     7.532036    -0.178311    -0.016992     0.081658    -0.044688     0.094624     0.003708    -0.001036    -0.034054     0.062061    -0.139135    -0.066245     0.011691     0.054554
   17 C      8.327088     6.009808     6.916152    -0.177339    -0.094565    -0.008521     0.005199     0.095090    -0.006922     0.005733    -0.050626    -0.009163    -0.102287    -0.064046     0.010571     0.053476
   18 C      7.407770     7.164423     6.481675    -0.119864     0.000229    -0.071045     0.054784     0.089714     0.023773    -0.076036    -0.019686     0.076459    -0.124311    -0.082963    -0.024256     0.107218
   19 H      5.327743     5.317478     8.359578     0.107490    -0.024100    -0.017574     0.035948     0.046711     0.003748    -0.017115    -0.006864    -0.011735     0.004281    -0.020228     0.000996     0.019232
   20 H      5.480520     5.150090     6.529296     0.128592    -0.011722    -0.019149    -0.038701     0.044742     0.006266     0.006748    -0.004602    -0.009884    -0.039821    -0.017388     0.002710     0.014677
   21 H      7.410367     4.000001     6.921983     0.127830    -0.001434    -0.032880    -0.030845     0.045106    -0.000447    -0.004790     0.008404    -0.003902    -0.042041    -0.017624     0.005360     0.012263
   22 H      7.701629     4.665489     8.565674     0.089618     0.017145    -0.011633     0.036401     0.041884     0.000141     0.006392    -0.012875     0.016485     0.025189    -0.018961     0.001877     0.017084
   23 H      8.840296     5.620482     6.012988     0.128872     0.013097    -0.017277    -0.039244     0.044834    -0.008054    -0.011687    -0.002845    -0.007979     0.000446    -0.016952     0.005323     0.011629
   24 H      9.103189     6.333861     7.641206     0.088730     0.031336     0.006408     0.027191     0.041980     0.006328     0.015805    -0.004498     0.006702    -0.012300    -0.018969     0.001480     0.017488
   25 H      7.101091     6.993314     5.420518     0.128292    -0.006547    -0.014021    -0.041305     0.044108     0.000430    -0.006656    -0.011203     0.016919     0.006668    -0.016749     0.002470     0.014279
   26 H      7.809503     8.188235     6.636545     0.107931     0.025481     0.039318     0.001497     0.046877     0.011345    -0.008964     0.003199    -0.008942    -0.040671    -0.019661     0.000491     0.019170
   27 H      4.000001     7.382830     7.025133     0.148028    -0.035874    -0.010429     0.007319     0.038070    -0.000285    -0.001716    -0.009741     0.027717    -0.010178    -0.018500     0.002776     0.015724
   28 C      4.938182     7.547634     6.455901    -0.356023     0.037136    -0.022314     0.017374     0.046678    -0.041521     0.084996    -0.073105     0.114000    -0.094555    -0.115377    -0.033432     0.148809
   29 H      5.090183     8.632047     6.277675     0.148231     0.002031     0.032948    -0.018630     0.037905     0.000386     0.008594    -0.010696    -0.010759    -0.030722    -0.018406     0.002729     0.015677
   30 H      4.936462     6.973217     5.491741     0.164691    -0.006232    -0.013197    -0.031105     0.034359    -0.008097     0.010055    -0.005397     0.012565    -0.009834    -0.009540    -0.008461     0.018001
   31 Br     5.935568     5.226647     4.000001    -0.780342     0.035902    -0.035894    -0.088735     0.102231     0.009818     0.036202     0.111938    -0.046430     0.467982    -0.109851    -0.098946     0.208797
 
The sperically averaged electron density of each atom fit to a function of the form exp(a - br) for r >=rmin_cloud_penetration
atom number,atomic symbol, x, y, z, a, b, Rsquared where a and b are in atomic units and Rsquared is the squared correlation coefficient
    1 C      6.109102     7.806159     8.598922     0.242758     1.990232     0.999798
    2 H      6.187802     8.875548     8.305879    -1.196152     2.129031     0.999493
    3 H      5.096878     7.658170     9.034626    -1.532556     2.062646     0.999503
    4 C      7.176228     7.475885     9.651022    -0.043970     1.911891     0.999673
    5 H      7.113286     6.406176     9.948452    -1.421648     2.061228     0.999081
    6 H      8.195592     7.641634     9.238875    -1.236564     2.098957     0.998441
    7 C      6.996451     8.356431    10.909834    -0.335233     1.923310     0.997897
    8 H      7.052677     9.432463    10.620556    -1.973627     2.038744     0.998736
    9 H      5.971567     8.203517    11.324577    -2.373077     1.954996     0.997871
   10 C      8.038850     8.063941    12.002426    -0.318628     1.909547     0.999073
   11 H      9.074947     8.247690    11.637105    -1.980008     2.060359     0.997694
   12 H      7.876599     8.710919    12.892160    -2.771808     1.950319     0.980355
   13 H      7.985637     7.004820    12.342132    -2.129252     2.024972     0.998103
   14 N      6.101205     7.027926     7.284570     0.213485     2.165291     0.995974
   15 C      5.965661     5.504949     7.470710    -0.709896     1.797137     0.999882
   16 C      7.391540     4.926068     7.532036    -0.620489     1.833475     0.999416
   17 C      8.327088     6.009808     6.916152    -0.626807     1.833719     0.999350
   18 C      7.407770     7.164423     6.481675    -0.719916     1.794608     0.999867
   19 H      5.327743     5.317478     8.359578    -3.441354     1.758360     0.998308
   20 H      5.480520     5.150090     6.529296    -3.101104     1.673133     0.995604
   21 H      7.410367     4.000001     6.921983    -3.323896     1.725684     0.996916
   22 H      7.701629     4.665489     8.565674    -2.664064     1.935269     0.997273
   23 H      8.840296     5.620482     6.012988    -3.894718     1.620172     0.991113
   24 H      9.103189     6.333861     7.641206    -2.372252     1.992749     0.997964
   25 H      7.101091     6.993314     5.420518    -3.110845     1.666649     0.995348
   26 H      7.809503     8.188235     6.636545    -3.475810     1.752669     0.998175
   27 H      4.000001     7.382830     7.025133    -3.372153     1.803431     0.994866
   28 C      4.938182     7.547634     6.455901    -0.876183     1.763628     0.999228
   29 H      5.090183     8.632047     6.277675    -3.654220     1.746359     0.991666
   30 H      4.936462     6.973217     5.491741    -3.478242     1.618468     0.991167
   31 Br     5.935568     5.226647     4.000001     0.490500     1.672120     0.999983
 
 2018/11/18  02:39:25
