31
Coordinates from ORCA-job Pyr14Br
  C   -0.27282260681357      1.59187141967297      1.85023764016609
  H   -0.19412202159980      2.66126056766544      1.55719498425191
  H   -1.28504625128979      1.44388220466219      2.28594169857833
  C   0.79430379466125      1.26159760352975      2.90233804164574
  H   0.73136237890483      0.19188846343178      3.19976756522205
  H   1.81366756852414      1.42734622425022      2.49019137061935
  C   0.61452670719447      2.14214342097127      4.16114974898242
  H   0.67075278944802      3.21817516779159      3.87187223811642
  H   -0.41035636310183      1.98922970264198      4.57589272303591
  C   1.65692606235561      1.84965329723252      5.25374177818344
  H   2.69302343499510      2.03340257905262      4.88842015504547
  H   1.49467467656614      2.49663139882994      6.14347522331014
  H   1.60371249696188      0.79053246863832      5.59344752903900
  N   -0.28071901639804      0.81363887935478      0.53588655608732
  C   -0.41626304942570     -0.70933790025857      0.72202563570916
  C   1.00961607222609     -1.28821919008101      0.78335178016803
  C   1.94516339985884     -0.20447935206237      0.16746780091581
  C   1.02584579832991      0.95013594792552     -0.26700932182205
  H   -1.05418095098637     -0.89680942718482      1.61089420363249
  H   -0.90140326049980     -1.06419749916912     -0.21938767515638
  H   1.02844331967107     -2.21428699862063      0.17329899374370
  H   1.31970512659909     -1.54879887703384      1.81698941283461
  H   2.45837225924147     -0.59380538602933     -0.73569588756455
  H   2.72126470523988      0.11957315338475      0.89252219155305
  H   0.71916704912297      0.77902655809227     -1.32816627276828
  H   1.42757919948843      1.97394731972200     -0.11213876076367
  H   -2.38192351678841      1.16854249246241      0.27644899036772
  C   -1.44374198493782      1.33334695760395     -0.29278294012396
  H   -1.29174041613848      2.41775887867117     -0.47100920454978
  H   -1.44546190336865      0.75893003393786     -1.25694280778976
  Br  -0.44635549804095     -0.98764010908559     -2.74868339066975
